AeroDynamicPhysicsData 1064c82e2868f2448da2652aa3f41c40
    $::DataContainer
    BodyDrag::Vec3
        x 0.035000000149
        y 0.0799999982119
        z 0.00419999985024
    BodyDragOffsetYZ::Vec3
        x 0.0
        y 0.0
        z -0.20000000298
    BodyDragOffsetXZ::Vec3
        x 0.0
        y 0.0
        z 0.0
    BodyDragOffsetXY::Vec3
        x 0.0
        y 0.0
        z 0.0
AlternateCameraViewData 0f10af375f7e114fab278134d7d0addf
    $::DataContainer
    FieldOfView 55.0
    AllowFieldOfViewScaling False
    FovTransitionTime 0.10000000149
    WorldSpaceLockEfficiency 0.0
    Mesh vehicles/common/cockpits/helmethud_mesh/194fbf7c3a4cde47b4c61006186c86f9
    MaskMeshBlueprint *nullGuid*
    LockMeshToRenderView True
    MeshOffset::Vec3
        x 0.0
        y 0.0
        z 0.25
    Hud::HudData
        CrosshairScaleMin 0.0
        CrosshairScaleMax 5.0
        CrosshairOpacityMin 1.0
        CrosshairOpacityMax 0.10000000149
        CrosshairOpacityModifier 1.0
        CrosshairTypeId *nullString*
        WeaponClass *nullString*
        ShowMinimap True
        HideAmmo False
        LowAmmoWarning 0.300000011921
        ReloadPrompt 0.300000011921
        InfiniteAmmo False
        HideCrosshairWhenAimOnFriend True
        UseRenderTarget False
        RenderTargetIndex 0
        HudPropertyList c9a828586f826440b083cff659275a98
        UseRangeMeter True
        UseAimWarning True
        UsePredictedSight True
        UseWeaponOrientations True
        UseVelocityVectorMarker False
        UseLockingController True
        UseThrust True
        UseGForce True
        UseSkidSlip True
        UseClimbRate True
        SeaLevelAltFreq 15.0
        CameraShakeModifier 1.0
    FadeToBlack False
    FadeInDuration 0.0
    FadeOutDuration 0.0
    BlackDuration 0.0
    InputSuppression::InputSuppressionData
        SuppressVehicleInput::array
            member::ActionSuppressor
                ActionToSuppress EIAPitch
                SuppressingValue 0.0
            member::ActionSuppressor
                ActionToSuppress EIARoll
                SuppressingValue 0.0
    ToggleViewChange False
    UseProfileOptionForToggleViewChange False
    FLIREnabled False
    ScreenExposureAreaScale 1.0
AlternateCameraViewData a0fe06ec2ae76b4ab7973440cbfd55c1
    $::DataContainer
    FieldOfView 55.0
    AllowFieldOfViewScaling False
    FovTransitionTime 0.10000000149
    WorldSpaceLockEfficiency 0.0
    Mesh vehicles/common/cockpits/helmethud_mesh/194fbf7c3a4cde47b4c61006186c86f9
    MaskMeshBlueprint *nullGuid*
    LockMeshToRenderView True
    MeshOffset::Vec3
        x 0.0
        y 0.0
        z 0.25
    Hud::HudData
        CrosshairScaleMin 0.0
        CrosshairScaleMax 5.0
        CrosshairOpacityMin 1.0
        CrosshairOpacityMax 0.10000000149
        CrosshairOpacityModifier 1.0
        CrosshairTypeId *nullString*
        WeaponClass *nullString*
        ShowMinimap True
        HideAmmo False
        LowAmmoWarning 0.300000011921
        ReloadPrompt 0.300000011921
        InfiniteAmmo False
        HideCrosshairWhenAimOnFriend True
        UseRenderTarget False
        RenderTargetIndex 0
        HudPropertyList *nullGuid*
        UseRangeMeter True
        UseAimWarning True
        UsePredictedSight True
        UseWeaponOrientations True
        UseVelocityVectorMarker False
        UseLockingController True
        UseThrust True
        UseGForce True
        UseSkidSlip True
        UseClimbRate True
        SeaLevelAltFreq 15.0
        CameraShakeModifier 1.0
    FadeToBlack False
    FadeInDuration 0.0
    FadeOutDuration 0.0
    BlackDuration 0.0
    InputSuppression::InputSuppressionData
        SuppressVehicleInput::array
            member::ActionSuppressor
                ActionToSuppress EIAPitch
                SuppressingValue 0.0
            member::ActionSuppressor
                ActionToSuppress EIARoll
                SuppressingValue 0.0
    ToggleViewChange False
    UseProfileOptionForToggleViewChange False
    FLIREnabled False
    ScreenExposureAreaScale 1.0
AntEnumeration 39ed5ca1b025e24c8190fe6c8e3f27d1
    $::DataContainer
    AntAsset::AntRef
        AssetId 357078069
    Value 42
AntEnumeration e57c909f870bd94a8113ca94e1f5674e
    $::DataContainer
    AntAsset::AntRef
        AssetId 357078069
    Value 42
BangerSpawnImpulseParams c08dd284c6dd5a4b90a1d6f6b8ca0062
    $::DataContainer
    MinHorizontalAngle -90.0
    MaxHorizontalAngle 90.0
    MinVerticalAngle 45.0
    MaxVerticalAngle 85.0
    MinStrength 5000.0
    MaxStrength 15000.0
    WaterStrengthModifier 0.00700000021607
    LinearDamping 0.0
    AngularDamping 0.0500000007451
CameraComponentData 56f307776b0cf641800566a8edb952f5
    $::ComponentData
        $::GameObjectData
            $::GameDataContainer
                $::DataContainer
            IsEventConnectionTarget 3
            IsPropertyConnectionTarget 3
            IndexInBlueprint -1
        Transform::LinearTransform
            right::Vec3
                x 1.0
                y 0.0
                z 0.0
            up::Vec3
                x 0.0
                y 1.0
                z 0.0
            forward::Vec3
                x 0.0
                y 0.0
                z 1.0
            trans::Vec3
                x 0.206885814667
                y 0.247150242329
                z -0.312392950058
        Components *nullArray*
        Excluded False
    Camera b6deb4772ecd004aa9e948e749c9b950
    FieldOfView 45.0
    ForceFieldOfView -1.0
    EnableCameraMesh True
    AlternateView 0f10af375f7e114fab278134d7d0addf
    RegularView::RegularCameraViewData
        FLIREnabled False
        InputSuppression::InputSuppressionData
            SuppressVehicleInput *nullArray*
        FieldOfView 55.0
        AllowFieldOfViewScaling False
        Mesh vehicles/common/cockpits/helmethud_mesh/194fbf7c3a4cde47b4c61006186c86f9
        MaskMeshBlueprint *nullGuid*
        LockMeshToRenderView True
        MeshOffset::Vec3
            x 0.0
            y 0.0
            z 0.25
        ScreenExposureAreaScale 1.0
    AlternateViewEnabled True
    FreezeHeight 0.0
    IsFirstPerson True
    SoldierAnimatedCamera::SoldierAnimatedCameraData
        EnableFeature False
        CameraTransitionTime 0.5
    ReceiveImpulsesAsThirdPerson False
    UseCameraTransition False
    CameraTransitionPos::Vec3
        x 0.0
        y 0.0
        z 0.0
    CameraTransitionTime 2.0
    MeshParentComponentNumber 0
    StanceData::StanceCameraData
        ValidStances *nullArray*
        DefaultCameraForStances *nullArray*
    CameraSoundData *nullGuid*
    IgnoreOwnerOrientation False
CameraComponentData 66295e60d75372498d844fdb21c32c03
    $::ComponentData
        $::GameObjectData
            $::GameDataContainer
                $::DataContainer
            IsEventConnectionTarget 3
            IsPropertyConnectionTarget 3
            IndexInBlueprint -1
        Transform::LinearTransform
            right::Vec3
                x 1.0
                y 0.0
                z 0.0
            up::Vec3
                x 0.0
                y 1.0
                z 0.0
            forward::Vec3
                x 0.0
                y 0.0
                z 1.0
            trans::Vec3
                x 0.206885814667
                y 0.247150242329
                z -0.312392950058
        Components *nullArray*
        Excluded False
    Camera d8c0296209c6bd40b8a418524c7d76b9
    FieldOfView 45.0
    ForceFieldOfView -1.0
    EnableCameraMesh True
    AlternateView a0fe06ec2ae76b4ab7973440cbfd55c1
    RegularView::RegularCameraViewData
        FLIREnabled False
        InputSuppression::InputSuppressionData
            SuppressVehicleInput *nullArray*
        FieldOfView 55.0
        AllowFieldOfViewScaling False
        Mesh vehicles/common/cockpits/helmethud_mesh/194fbf7c3a4cde47b4c61006186c86f9
        MaskMeshBlueprint *nullGuid*
        LockMeshToRenderView True
        MeshOffset::Vec3
            x 0.0
            y 0.0
            z 0.25
        ScreenExposureAreaScale 1.0
    AlternateViewEnabled True
    FreezeHeight 0.0
    IsFirstPerson True
    SoldierAnimatedCamera::SoldierAnimatedCameraData
        EnableFeature False
        CameraTransitionTime 0.5
    ReceiveImpulsesAsThirdPerson False
    UseCameraTransition False
    CameraTransitionPos::Vec3
        x 0.0
        y 0.0
        z 0.0
    CameraTransitionTime 2.0
    MeshParentComponentNumber 0
    StanceData::StanceCameraData
        ValidStances *nullArray*
        DefaultCameraForStances *nullArray*
    CameraSoundData *nullGuid*
    IgnoreOwnerOrientation False
ChassisComponentData 503bb96f0b51e846aac6f0f68d79d827
    $::PartComponentData
        $::ComponentData
            $::GameObjectData
                $::GameDataContainer
                    $::DataContainer
                IsEventConnectionTarget 3
                IsPropertyConnectionTarget 3
                IndexInBlueprint 1
            Transform::LinearTransform
                right::Vec3
                    x 1.0
                    y 0.0
                    z 0.0
                up::Vec3
                    x 0.0
                    y 1.0
                    z 0.0
                forward::Vec3
                    x 0.0
                    y 0.0
                    z 1.0
                trans::Vec3
                    x 0.0
                    y 0.0
                    z 0.0
            Components::array
                member 9ec085749439b14aab0c5a7712c51b09
                member 5d3a2719bb17fe4a9046bd126ac948bc
                member 232b0664ddd0bc4f96e0939a86767728
                member b2c84b07d80cbe4b96725012a7b896b4
                member f14fdb2df39dd146b590a520e3a0ed8a
                member aeaa42fd78af214b839a449f0e23d6d7
                member 4176163c47de0249897c278dd75e3443
                member bcb4fc2d950acf4ea390412ecae17e7a
                member b34607576ca78f499985db0485959ba7
                member fb40be503106c84896c30964c12ac5dd
                member f988b6fc1fe9014e91f5078e8cdeeed2
                member c5b1049f4baa0b43a314848f8df271ec
                member 27c560504c164543972bdd498f2d376b
                member b156283918180240af1c473cc2d7f63f
                member 1949404fdb402d411211b752eab2905e
                member 62c6302409377330a6d175cd9cf82c23
                member cf16891b86be3e381d4a9bfd77f68208
                member 227ee72496bb90e907860c41e1febbde
            Excluded False
        HealthStates::array
            member cbf5ca4d21634040abe757129bb3cf7b
        PartLinks *nullArray*
        IsSupported False
        IsFragile False
        IsNetworkable True
        IsWindow False
        AnimatePhysics False
    VehicleConfig 52971a7a5122bb4197fec9073ecde554
    GearboxConfig 9c173352cb5aa944a1d9d9810605ffc8
    AlwaysFullThrottle False
    WaterEffects *nullArray*
    WaterStreakEffects *nullArray*
    TriggerGroundEffectImpulse 0.0
    LandingGearLogic *nullGuid*
    ForceLandingGearsRetract False
    AllowNegativeThrottle True
Curve2D 3c0f254bd07fd248b0996f95cd9adc41
    $::DataContainer
    Curve::array
        member::Vec2
            x -35.0
            y 1.0
        member::Vec2
            x 0.0
            y 0.0
        member::Vec2
            x 35.0
            y 1.0
Curve2D 7132e8b8605c4743b47b2c39c3fd75f6
    $::DataContainer
    Curve *nullArray*
Curve2D 05d34f8bf42ac148be1c7880075f986c
    $::DataContainer
    Curve *nullArray*
Curve2D cd9c6b050568de41bd885bb2ec912fce
    $::DataContainer
    Curve::array
        member::Vec2
            x -35.0
            y 1.0
        member::Vec2
            x 0.0
            y 0.0
        member::Vec2
            x 35.0
            y 1.0
Curve2D 03efadc5e962b345a4ae1c0607ab01f3
    $::DataContainer
    Curve::array
        member::Vec2
            x -25.0
            y -1.0
        member::Vec2
            x -20.0
            y -3.0
        member::Vec2
            x -10.0
            y -2.0
        member::Vec2
            x -0.75
            y 0.0
        member::Vec2
            x 0.75
            y 0.0
        member::Vec2
            x 10.0
            y 2.0
        member::Vec2
            x 20.0
            y 3.0
        member::Vec2
            x 25.0
            y 1.0
Curve2D d1b9827aa6ee604dbd2f86cea0d8444c
    $::DataContainer
    Curve::array
        member::Vec2
            x -12.5
            y 2.25
        member::Vec2
            x -7.5
            y 1.25
        member::Vec2
            x -5.0
            y 0.10000000149
        member::Vec2
            x -2.0
            y 0.0500000007451
        member::Vec2
            x 0.0
            y 0.0299999993294
        member::Vec2
            x 2.0
            y 0.0500000007451
        member::Vec2
            x 5.0
            y 0.10000000149
        member::Vec2
            x 7.5
            y 1.25
        member::Vec2
            x 12.5
            y 2.25
EngineComponentData b2c84b07d80cbe4b96725012a7b896b4
    $::ComponentData
        $::GameObjectData
            $::GameDataContainer
                $::DataContainer
            IsEventConnectionTarget 3
            IsPropertyConnectionTarget 3
            IndexInBlueprint -1
        Transform::LinearTransform
            right::Vec3
                x 1.0
                y 0.0
                z 0.0
            up::Vec3
                x 0.0
                y 1.0
                z 0.0
            forward::Vec3
                x 0.0
                y 0.0
                z 1.0
            trans::Vec3
                x 0.0
                y 0.0
                z 0.0
        Components::array
            member 8bc15efde955894e8b8371ac5f1687cc
        Excluded False
    Config 4b2e2d50283ccf458bb9dfe34d9fc952
    SoundEffect *nullGuid*
    SurfaceSoundEffect *nullGuid*
    UseFirstPersonSounds False
    OutputIsEngineInWater False
EngineComponentData f14fdb2df39dd146b590a520e3a0ed8a
    $::ComponentData
        $::GameObjectData
            $::GameDataContainer
                $::DataContainer
            IsEventConnectionTarget 3
            IsPropertyConnectionTarget 3
            IndexInBlueprint -1
        Transform::LinearTransform
            right::Vec3
                x 1.0
                y 0.0
                z 0.0
            up::Vec3
                x 0.0
                y 1.0
                z 0.0
            forward::Vec3
                x 0.0
                y 0.0
                z 1.0
            trans::Vec3
                x 0.0
                y 0.0
                z 0.0
        Components::array
            member 07ee3042e0dcab41ac0a61e8813f60bc
        Excluded False
    Config 58d74764ee88e64eaf188fccc823537a
    SoundEffect *nullGuid*
    SurfaceSoundEffect *nullGuid*
    UseFirstPersonSounds False
    OutputIsEngineInWater False
EntityVoiceOverInfo 0f4cae1135f71f4185384e17fd02db67
    $::DataContainer
    VoiceOverType sound/vo/vo_system/d96f3de2d0ae7e4398ab435761060519
    Labels::array
        member sound/vo/vo_system/16f4c4d56042544c8f47aa07606fbb29
GearboxConfigData 9c173352cb5aa944a1d9d9810605ffc8
    $::DataContainer
    ForwardGearRatios::array
        member 0.0
    ForwardGearSpeeds::array
        member 0.0
    ReverseGearRatios::array
        member 0.0
    ReverseGearSpeeds::array
        member 0.0
    GearboxType 0
    GearboxMode 0
    GearChangeTime 0.0625
    GearDownSpeedFactor 0.800000011921
    OppositeDirGearChangeMaxSpeed 50.0
    OppositeDirGearChangeTime 0.125
    ClutchSpeedFactor 10.0
    TransmissionEfficiency 1.0
    UseAutoClutch True
    UseClassicGearBoxAutoClutch False
    UseNeutralGear True
    LimitBackwardThrottle False
    BackwardThrottleLimit 50.0
HavokAsset 6718d703b42cc7e0feb83e1d52151a09
    $::Asset
        $::DataContainer
        Name Levels/SP_Villa/Prefabs/KA-60_Kasatka_Villa_Physics_0_Win32
    Scale 1.0
    ExternalAssets *nullArray*
HealthStateData cbf5ca4d21634040abe757129bb3cf7b
    $::DataContainer
    Objects *nullArray*
    LoosePartPhysics *nullArray*
    SpawnedBangerBlueprint *nullGuid*
    CopyDamageToBanger True
    SpawnedBangerImpulseParams *nullGuid*
    PhysicsEnabled True
    Health 100000.0
    PartIndex 0
    CanSupportOtherParts True
HealthStateData 13a4e104ae35e04391c08ab19d320994
    $::DataContainer
    Objects *nullArray*
    LoosePartPhysics *nullArray*
    SpawnedBangerBlueprint *nullGuid*
    CopyDamageToBanger True
    SpawnedBangerImpulseParams *nullGuid*
    PhysicsEnabled True
    Health 100.0
    PartIndex 8
    CanSupportOtherParts True
HealthStateData dc422c11ab35c54fbb83bb0e5e2bb909
    $::DataContainer
    Objects *nullArray*
    LoosePartPhysics *nullArray*
    SpawnedBangerBlueprint *nullGuid*
    CopyDamageToBanger True
    SpawnedBangerImpulseParams *nullGuid*
    PhysicsEnabled True
    Health 100.0
    PartIndex 9
    CanSupportOtherParts True
HealthStateData 8ef316dbb99c2d469ce209dc68451e71
    $::DataContainer
    Objects *nullArray*
    LoosePartPhysics *nullArray*
    SpawnedBangerBlueprint *nullGuid*
    CopyDamageToBanger True
    SpawnedBangerImpulseParams *nullGuid*
    PhysicsEnabled True
    Health 100.0
    PartIndex 10
    CanSupportOtherParts True
HealthStateData ffa57caff00a3c4da6f75b05a3e3c530
    $::DataContainer
    Objects *nullArray*
    LoosePartPhysics *nullArray*
    SpawnedBangerBlueprint *nullGuid*
    CopyDamageToBanger True
    SpawnedBangerImpulseParams *nullGuid*
    PhysicsEnabled True
    Health 100.0
    PartIndex 11
    CanSupportOtherParts True
HealthStateData 8c648b60fb0551419aecf70cfacfc0fa
    $::DataContainer
    Objects *nullArray*
    LoosePartPhysics *nullArray*
    SpawnedBangerBlueprint *nullGuid*
    CopyDamageToBanger True
    SpawnedBangerImpulseParams *nullGuid*
    PhysicsEnabled True
    Health 100.0
    PartIndex 12
    CanSupportOtherParts True
HealthStateData 2d575ce14f06eb4eb0d13b694973d61c
    $::DataContainer
    Objects *nullArray*
    LoosePartPhysics *nullArray*
    SpawnedBangerBlueprint *nullGuid*
    CopyDamageToBanger True
    SpawnedBangerImpulseParams *nullGuid*
    PhysicsEnabled True
    Health 100.0
    PartIndex 13
    CanSupportOtherParts True
HealthStateData ebd17973ab7d8d49b7d57a7042b24b5e
    $::DataContainer
    Objects *nullArray*
    LoosePartPhysics *nullArray*
    SpawnedBangerBlueprint *nullGuid*
    CopyDamageToBanger True
    SpawnedBangerImpulseParams *nullGuid*
    PhysicsEnabled True
    Health 100.0
    PartIndex 20
    CanSupportOtherParts True
HealthStateData c9f67057fc8d6b42b5b36a274d32d041
    $::DataContainer
    Objects *nullArray*
    LoosePartPhysics *nullArray*
    SpawnedBangerBlueprint *nullGuid*
    CopyDamageToBanger True
    SpawnedBangerImpulseParams *nullGuid*
    PhysicsEnabled True
    Health 100.0
    PartIndex 21
    CanSupportOtherParts True
HealthStateData bf8415ed6654d744b24be15ff6385876
    $::DataContainer
    Objects *nullArray*
    LoosePartPhysics *nullArray*
    SpawnedBangerBlueprint *nullGuid*
    CopyDamageToBanger True
    SpawnedBangerImpulseParams *nullGuid*
    PhysicsEnabled True
    Health 100.0
    PartIndex 22
    CanSupportOtherParts True
HealthStateData 74e5fa6d1c82ab4682888acb1b7b0e29
    $::DataContainer
    Objects *nullArray*
    LoosePartPhysics *nullArray*
    SpawnedBangerBlueprint *nullGuid*
    CopyDamageToBanger True
    SpawnedBangerImpulseParams *nullGuid*
    PhysicsEnabled True
    Health 100.0
    PartIndex 23
    CanSupportOtherParts True
HealthStateData 6bbdccb2f3fd7041bae9b7a629df6e4e
    $::DataContainer
    Objects *nullArray*
    LoosePartPhysics *nullArray*
    SpawnedBangerBlueprint *nullGuid*
    CopyDamageToBanger True
    SpawnedBangerImpulseParams *nullGuid*
    PhysicsEnabled True
    Health 500.0
    PartIndex 7
    CanSupportOtherParts True
HealthStateData 47f17d7b8db7534d895d6d6d5cd615f0
    $::DataContainer
    Objects *nullArray*
    LoosePartPhysics *nullArray*
    SpawnedBangerBlueprint vehicles/ka-60_kasatka/ka-60_kasatka_wrecktail/22784422d03de9c1dc259800e02fb8fc
    CopyDamageToBanger True
    SpawnedBangerImpulseParams c08dd284c6dd5a4b90a1d6f6b8ca0062
    PhysicsEnabled True
    Health 0.0
    PartIndex 4294967295
    CanSupportOtherParts False
HealthStateData 88f6489875bc4148b9f9f2c1cc45bab2
    $::DataContainer
    Objects *nullArray*
    LoosePartPhysics *nullArray*
    SpawnedBangerBlueprint *nullGuid*
    CopyDamageToBanger True
    SpawnedBangerImpulseParams *nullGuid*
    PhysicsEnabled True
    Health 100.0
    PartIndex 24
    CanSupportOtherParts True
HealthStateData 13404a32aa4d074890704c562a176108
    $::DataContainer
    Objects *nullArray*
    LoosePartPhysics *nullArray*
    SpawnedBangerBlueprint *nullGuid*
    CopyDamageToBanger True
    SpawnedBangerImpulseParams *nullGuid*
    PhysicsEnabled True
    Health 100.0
    PartIndex 25
    CanSupportOtherParts True
HealthStateData f2a9722cb27744458380eab04f3b4630
    $::DataContainer
    Objects *nullArray*
    LoosePartPhysics *nullArray*
    SpawnedBangerBlueprint *nullGuid*
    CopyDamageToBanger True
    SpawnedBangerImpulseParams *nullGuid*
    PhysicsEnabled True
    Health 100.0
    PartIndex 26
    CanSupportOtherParts True
HealthStateData 834ea54ec0b37a4bbd3b7fc09da4c403
    $::DataContainer
    Objects *nullArray*
    LoosePartPhysics *nullArray*
    SpawnedBangerBlueprint *nullGuid*
    CopyDamageToBanger True
    SpawnedBangerImpulseParams *nullGuid*
    PhysicsEnabled True
    Health 100.0
    PartIndex 27
    CanSupportOtherParts True
HealthStateData 4101ac2cdb8bdeca493b274460eb4c44
    $::DataContainer
    Objects *nullArray*
    LoosePartPhysics *nullArray*
    SpawnedBangerBlueprint *nullGuid*
    CopyDamageToBanger True
    SpawnedBangerImpulseParams *nullGuid*
    PhysicsEnabled True
    Health 100.0
    PartIndex 1
    CanSupportOtherParts True
HealthStateData 5d7f84634ebd2328346bb834ee5a2597
    $::DataContainer
    Objects *nullArray*
    LoosePartPhysics *nullArray*
    SpawnedBangerBlueprint *nullGuid*
    CopyDamageToBanger True
    SpawnedBangerImpulseParams *nullGuid*
    PhysicsEnabled True
    Health 100.0
    PartIndex 2
    CanSupportOtherParts True
HealthStateData ac12f928464cf57016e671c40ad088e2
    $::DataContainer
    Objects *nullArray*
    LoosePartPhysics *nullArray*
    SpawnedBangerBlueprint *nullGuid*
    CopyDamageToBanger True
    SpawnedBangerImpulseParams *nullGuid*
    PhysicsEnabled True
    Health 100.0
    PartIndex 14
    CanSupportOtherParts True
HealthStateData b13623452928273ab057ff4defebe58d
    $::DataContainer
    Objects *nullArray*
    LoosePartPhysics *nullArray*
    SpawnedBangerBlueprint *nullGuid*
    CopyDamageToBanger True
    SpawnedBangerImpulseParams *nullGuid*
    PhysicsEnabled True
    Health 100.0
    PartIndex 15
    CanSupportOtherParts True
HealthStateData c06b5f853c1d046a9668b0afc63a8119
    $::DataContainer
    Objects *nullArray*
    LoosePartPhysics *nullArray*
    SpawnedBangerBlueprint *nullGuid*
    CopyDamageToBanger True
    SpawnedBangerImpulseParams *nullGuid*
    PhysicsEnabled True
    Health 100.0
    PartIndex 16
    CanSupportOtherParts True
HealthStateData 7bf15982abb63b823ef3b4ca7ea852b5
    $::DataContainer
    Objects *nullArray*
    LoosePartPhysics *nullArray*
    SpawnedBangerBlueprint *nullGuid*
    CopyDamageToBanger True
    SpawnedBangerImpulseParams *nullGuid*
    PhysicsEnabled True
    Health 100.0
    PartIndex 17
    CanSupportOtherParts True
HealthStateData 9612bca538df7bd34b770abb9a5c6d82
    $::DataContainer
    Objects *nullArray*
    LoosePartPhysics *nullArray*
    SpawnedBangerBlueprint *nullGuid*
    CopyDamageToBanger True
    SpawnedBangerImpulseParams *nullGuid*
    PhysicsEnabled True
    Health 100.0
    PartIndex 18
    CanSupportOtherParts True
HealthStateData 86b65e796910e5cf9dbf0f6189e7519e
    $::DataContainer
    Objects *nullArray*
    LoosePartPhysics *nullArray*
    SpawnedBangerBlueprint *nullGuid*
    CopyDamageToBanger True
    SpawnedBangerImpulseParams *nullGuid*
    PhysicsEnabled True
    Health 100.0
    PartIndex 19
    CanSupportOtherParts True
MeshComponentData 9ec085749439b14aab0c5a7712c51b09
    $::ComponentData
        $::GameObjectData
            $::GameDataContainer
                $::DataContainer
            IsEventConnectionTarget 3
            IsPropertyConnectionTarget 3
            IndexInBlueprint -1
        Transform::LinearTransform
            right::Vec3
                x 1.0
                y 0.0
                z 0.0
            up::Vec3
                x 0.0
                y 1.0
                z 0.0
            forward::Vec3
                x 0.0
                y 0.0
                z 1.0
            trans::Vec3
                x 0.0277693271637
                y 0.0
                z 0.014840900898
        Components *nullArray*
        Excluded False
    BoneFakePhysics *nullArray*
    Mesh levels/sp_villa/props/ka-60_kasatkainterior_villa_mesh/767315a7c8fb3b41bfea85f47fbd99b8
    Skeleton *nullGuid*
MotionDampingData cd45614fddb2ce4cb81bbf95eae0e95d
    $::DataContainer
    LinearModifier::Vec3
        x 1.0
        y 1.0
        z 1.0
    Pitch 0.20000000298
    Yaw 0.0799999982119
    Roll 0.20000000298
    Linear 0.0
PartComponentData fb40be503106c84896c30964c12ac5dd
    $::ComponentData
        $::GameObjectData
            $::GameDataContainer
                $::DataContainer
            IsEventConnectionTarget 3
            IsPropertyConnectionTarget 3
            IndexInBlueprint -1
        Transform::LinearTransform
            right::Vec3
                x 1.0
                y 0.0
                z 0.0
            up::Vec3
                x 0.0
                y 1.0
                z 0.0
            forward::Vec3
                x 0.0
                y 0.0
                z 1.0
            trans::Vec3
                x 0.0
                y 0.0
                z 0.0
        Components::array
            member 40ab6e4104770f49a8aa07b2b3df172f
            member f84fbd33edc52c4097442c5f9ada293a
            member a1f716fa21f5ca4dbe674ba34053bcca
            member 9b6cf41953e47842a99a4633a2cbcd3f
        Excluded False
    HealthStates *nullArray*
    PartLinks *nullArray*
    IsSupported False
    IsFragile False
    IsNetworkable True
    IsWindow False
    AnimatePhysics False
PartComponentData b156283918180240af1c473cc2d7f63f
    $::ComponentData
        $::GameObjectData
            $::GameDataContainer
                $::DataContainer
            IsEventConnectionTarget 3
            IsPropertyConnectionTarget 3
            IndexInBlueprint -1
        Transform::LinearTransform
            right::Vec3
                x 1.0
                y 0.0
                z 0.0
            up::Vec3
                x 0.0
                y 1.0
                z 0.0
            forward::Vec3
                x 0.0
                y 0.0
                z 1.0
            trans::Vec3
                x -3.81469718036e-08
                y -1.04522562027
                z -5.1238079071
        Components::array
            member 8f78e9051df676429810f712b2a4099d
        Excluded False
    HealthStates::array
        member 6bbdccb2f3fd7041bae9b7a629df6e4e
        member 47f17d7b8db7534d895d6d6d5cd615f0
    PartLinks *nullArray*
    IsSupported False
    IsFragile False
    IsNetworkable True
    IsWindow False
    AnimatePhysics False
PartComponentData 8f78e9051df676429810f712b2a4099d
    $::ComponentData
        $::GameObjectData
            $::GameDataContainer
                $::DataContainer
            IsEventConnectionTarget 3
            IsPropertyConnectionTarget 3
            IndexInBlueprint -1
        Transform::LinearTransform
            right::Vec3
                x 1.0
                y 0.0
                z 0.0
            up::Vec3
                x 0.0
                y 0.955019950867
                z -0.296541571617
            forward::Vec3
                x 0.0
                y 0.296541571617
                z 0.955019950867
            trans::Vec3
                x 3.81469718036e-08
                y 2.4264793396
                z -3.07148456573
        Components *nullArray*
        Excluded False
    HealthStates::array
        member ebd17973ab7d8d49b7d57a7042b24b5e
    PartLinks *nullArray*
    IsSupported False
    IsFragile False
    IsNetworkable True
    IsWindow False
    AnimatePhysics False
PartComponentData b34607576ca78f499985db0485959ba7
    $::ComponentData
        $::GameObjectData
            $::GameDataContainer
                $::DataContainer
            IsEventConnectionTarget 3
            IsPropertyConnectionTarget 3
            IndexInBlueprint -1
        Transform::LinearTransform
            right::Vec3
                x 1.0
                y 0.0
                z 0.0
            up::Vec3
                x 0.0
                y 1.0
                z 0.0
            forward::Vec3
                x 0.0
                y 0.0
                z 1.0
            trans::Vec3
                x 0.0
                y 0.0