AIEntryData e1cdb9fe05b60bc476000a79989fc18c
    $::GameAIEntryData
        $::Asset
            $::DataContainer
            Name *nullString*
    EquipmentType *nullGuid*
    Armament *nullGuid*
    Mobility *nullGuid*
    StrengthType Infantry
    ReuseTime 0.0
    Forbidden True
    HasExposedSoldier False
    InterludeOnly False
    InvalidForAI False
AeroDynamicPhysicsData 215c31dca5487249af6c3f09559c1c79
    $::DataContainer
    BodyDrag::Vec3
        x 0.5
        y 0.5
        z 0.0
    BodyDragOffsetYZ::Vec3
        x 0.0
        y 0.0
        z 0.0
    BodyDragOffsetXZ::Vec3
        x 0.0
        y 0.0
        z 0.0
    BodyDragOffsetXY::Vec3
        x 0.0
        y 0.0
        z 0.0
BoolToEventEntityData 9ec2e9da1d05d745b67faba0a96f737a
    $::EntityData
        $::GameObjectData
            $::GameDataContainer
                $::DataContainer
            IsEventConnectionTarget 3
            IsPropertyConnectionTarget 2
            IndexInBlueprint 5
    Realm Realm_Client
    Value False
    InitalEvent False
BoolToEventEntityData 517f7c70fd3f614aa50fca8d007e97f9
    $::EntityData
        $::GameObjectData
            $::GameDataContainer
                $::DataContainer
            IsEventConnectionTarget 3
            IsPropertyConnectionTarget 0
            IndexInBlueprint 7
    Realm Realm_Client
    Value False
    InitalEvent False
CameraComponentData 06258ce680f698418750cc9a6106beba
    $::ComponentData
        $::GameObjectData
            $::GameDataContainer
                $::DataContainer
            IsEventConnectionTarget 3
            IsPropertyConnectionTarget 3
            IndexInBlueprint -1
        Transform::LinearTransform
            right::Vec3
                x 1.0
                y 0.0
                z 0.0
            up::Vec3
                x 0.0
                y 1.0
                z 0.0
            forward::Vec3
                x 0.0
                y 0.0
                z 1.0
            trans::Vec3
                x 0.0
                y 0.0
                z 0.890224993229
        Components *nullArray*
        Excluded False
    Camera 4ab411ffc0286641ad192573ed8d0c0d
    FieldOfView 45.0
    ForceFieldOfView -1.0
    EnableCameraMesh True
    AlternateView *nullGuid*
    RegularView::RegularCameraViewData
        FLIREnabled False
        InputSuppression::InputSuppressionData
            SuppressVehicleInput *nullArray*
        FieldOfView 36.0
        AllowFieldOfViewScaling False
        Mesh vehicles/common/cockpits/hudholder_mesh/0d0d3399c1eca347911d89dce40eac0c
        MaskMeshBlueprint *nullGuid*
        LockMeshToRenderView False
        MeshOffset::Vec3
            x 0.0
            y 0.0
            z 0.589999973774
        ScreenExposureAreaScale 1.0
    AlternateViewEnabled True
    FreezeHeight 0.0
    IsFirstPerson True
    SoldierAnimatedCamera::SoldierAnimatedCameraData
        EnableFeature False
        CameraTransitionTime 0.5
    ReceiveImpulsesAsThirdPerson False
    UseCameraTransition False
    CameraTransitionPos::Vec3
        x 0.0
        y 0.0
        z 0.0
    CameraTransitionTime 2.0
    MeshParentComponentNumber 0
    StanceData::StanceCameraData
        ValidStances *nullArray*
        DefaultCameraForStances *nullArray*
    CameraSoundData *nullGuid*
    IgnoreOwnerOrientation False
ChassisComponentData 558bbff288622ef140d1b566e782fcbd
    $::PartComponentData
        $::ComponentData
            $::GameObjectData
                $::GameDataContainer
                    $::DataContainer
                IsEventConnectionTarget 3
                IsPropertyConnectionTarget 3
                IndexInBlueprint 1
            Transform::LinearTransform
                right::Vec3
                    x 1.0
                    y 0.0
                    z 0.0
                up::Vec3
                    x 0.0
                    y 1.0
                    z 0.0
                forward::Vec3
                    x 0.0
                    y 0.0
                    z 1.0
                trans::Vec3
                    x -3.37326859778e-08
                    y 0.0
                    z -0.419793337584
            Components::array
                member 4c9054fa9cfe264fac7a71cd94a43442
                member 3144023730b9ab489bd9465aeff3537d
                member b481017b5fd6f843af50caef929198c0
                member 06258ce680f698418750cc9a6106beba
                member 59efdd64d0a67e4f8990270c6be480a8
            Excluded False
        HealthStates::array
            member 225323e6c5a34d1917b56573f77e04a1
            member 447fff1e37f04f44bd0ea2f59b36847e
        PartLinks *nullArray*
        IsSupported False
        IsFragile False
        IsNetworkable True
        IsWindow False
        AnimatePhysics False
    VehicleConfig d56801364214ba42a15856ceec950ae4
    GearboxConfig bf935d868253d540882b6e61f36ef6b0
    AlwaysFullThrottle True
    WaterEffects *nullArray*
    WaterStreakEffects *nullArray*
    TriggerGroundEffectImpulse 0.0
    LandingGearLogic *nullGuid*
    ForceLandingGearsRetract False
    AllowNegativeThrottle False
CompareEntityData 186cc8c53b10ba4fbf5ee066fcbbbbf2
    $::EntityData
        $::GameObjectData
            $::GameDataContainer
                $::DataContainer
            IsEventConnectionTarget 3
            IsPropertyConnectionTarget 2
            IndexInBlueprint 6
    Realm Realm_Client
    Operator CompareOp_LessOrEqual
    FloatIn0 0.0
    FloatIn1 0.0
    IntIn0 0
    IntIn1 0
CustomizeSoldierEntityData dff65cbe25d13a499fecdcb6954c88f8
    $::CustomizeBaseEntityData
        $::EntityData
            $::GameObjectData
                $::GameDataContainer
                    $::DataContainer
                IsEventConnectionTarget 1
                IsPropertyConnectionTarget 3
                IndexInBlueprint 12
        Realm Realm_Server
    CustomizeSoldierData characters/soldiers/customizations/mp_pilot_heli_us/c7893681bcb91141962dc981c033e6bc
CustomizeSoldierEntityData 6f73880244f6b34dac6c503fb9edb850
    $::CustomizeBaseEntityData
        $::EntityData
            $::GameObjectData
                $::GameDataContainer
                    $::DataContainer
                IsEventConnectionTarget 1
                IsPropertyConnectionTarget 3
                IndexInBlueprint 13
        Realm Realm_Server
    CustomizeSoldierData vehicles/common/restorecustomizesoldier/a774f432829701e7611adbf08dc2657b
CustomizeSoldierEntityData 3d11e85338baef4892f913ee48185e0d
    $::CustomizeBaseEntityData
        $::EntityData
            $::GameObjectData
                $::GameDataContainer
                    $::DataContainer
                IsEventConnectionTarget 1
                IsPropertyConnectionTarget 3
                IndexInBlueprint 14
        Realm Realm_Server
    CustomizeSoldierData characters/soldiers/customizations/mp_pilot_heli_ru/80200bd10a62fb43bca9bd0400b95258
EffectComponentData 4c9054fa9cfe264fac7a71cd94a43442
    $::ComponentData
        $::GameObjectData
            $::GameDataContainer
                $::DataContainer
            IsEventConnectionTarget 3
            IsPropertyConnectionTarget 3
            IndexInBlueprint -1
        Transform::LinearTransform
            right::Vec3
                x 1.0
                y 0.0
                z 0.0
            up::Vec3
                x 0.0
                y 1.0
                z 0.0
            forward::Vec3
                x 0.0
                y 0.0
                z 1.0
            trans::Vec3
                x 0.0
                y 0.0
                z 0.0
        Components *nullArray*
        Excluded False
    Effect fx/weapons/trails/fx_trail_thicksmoke_longlived/0f655402fd73cc45901b7ba260009b5b
    AutoStart True
    SnapToWaterSurface False
    EmitterParameter1 0.0
    EmitterParameter2 0.0
    EmitterParameter3 0.0
EffectComponentData 3144023730b9ab489bd9465aeff3537d
    $::ComponentData
        $::GameObjectData
            $::GameDataContainer
                $::DataContainer
            IsEventConnectionTarget 3
            IsPropertyConnectionTarget 3
            IndexInBlueprint -1
        Transform::LinearTransform
            right::Vec3
                x 1.0
                y 0.0
                z 0.0
            up::Vec3
                x 0.0
                y 1.0
                z 0.0
            forward::Vec3
                x 0.0
                y 0.0
                z 1.0
            trans::Vec3
                x 0.0
                y 0.0
                z 0.0
        Components *nullArray*
        Excluded False
    Effect fx/weapons/trailengine/fx_trailengine_generic/c3fc6e4b1d7f2b479954f3191cd0200e
    AutoStart True
    SnapToWaterSurface False
    EmitterParameter1 0.0
    EmitterParameter2 0.0
    EmitterParameter3 0.0
EngineComponentData 59efdd64d0a67e4f8990270c6be480a8
    $::ComponentData
        $::GameObjectData
            $::GameDataContainer
                $::DataContainer
            IsEventConnectionTarget 3
            IsPropertyConnectionTarget 3
            IndexInBlueprint -1
        Transform::LinearTransform
            right::Vec3
                x 1.0
                y 0.0
                z 0.0
            up::Vec3
                x 0.0
                y 1.0
                z 0.0
            forward::Vec3
                x 0.0
                y 0.0
                z 1.0
            trans::Vec3
                x 0.0
                y 0.0
                z 0.0
        Components *nullArray*
        Excluded False
    Config 7095a354d8e85f4a8cfc118e10f9732a
    SoundEffect *nullGuid*
    SurfaceSoundEffect *nullGuid*
    UseFirstPersonSounds False
    OutputIsEngineInWater False
EventGateEntityData 77aff0109ccb6b478da84849257ba103
    $::EntityData
        $::GameObjectData
            $::GameDataContainer
                $::DataContainer
            IsEventConnectionTarget 0
            IsPropertyConnectionTarget 3
            IndexInBlueprint 10
    Default False
    Realm Realm_Client
FloatHubEntityData d23fb7acc765d14b9a712858417df2f3
    $::EntityData
        $::GameObjectData
            $::GameDataContainer
                $::DataContainer
            IsEventConnectionTarget 3
            IsPropertyConnectionTarget 2
            IndexInBlueprint 8
    Realm Realm_Client
    InputCount 2
    InputSelect 0
FloatPropertyTrackData e0c49fe70a8309488e39a66049692ac9
    $::SimplePropertyTrackData
        $::PropertyTrackData
            $::DataContainer
            Id -702042979
            Times::array
                member 0
                member 2332
        InterpolationType InterpolationType_None
    Values::array
        member 20.0
        member 100.0
GearboxConfigData bf935d868253d540882b6e61f36ef6b0
    $::DataContainer
    ForwardGearRatios::array
        member 1.0
    ForwardGearSpeeds::array
        member 1500.0
    ReverseGearRatios::array
        member -1.0
    ReverseGearSpeeds::array
        member 1500.0
    GearboxType 1
    GearboxMode 0
    GearChangeTime 0.0625
    GearDownSpeedFactor 0.800000011921
    OppositeDirGearChangeMaxSpeed 50.0
    OppositeDirGearChangeTime 0.125
    ClutchSpeedFactor 10.0
    TransmissionEfficiency 1.0
    UseAutoClutch True
    UseClassicGearBoxAutoClutch False
    UseNeutralGear True
    LimitBackwardThrottle False
    BackwardThrottleLimit 50.0
HavokAsset 220ce4176ec153b6b808a8b3d8ae4d67
    $::Asset
        $::DataContainer
        Name Vehicles/common/WeaponData/AGM-144_Hellfire_TV_Physics_0_Win32
    Scale 1.0
    ExternalAssets *nullArray*
HealthStateData 225323e6c5a34d1917b56573f77e04a1
    $::DataContainer
    Objects *nullArray*
    LoosePartPhysics *nullArray*
    SpawnedBangerBlueprint *nullGuid*
    CopyDamageToBanger True
    SpawnedBangerImpulseParams *nullGuid*
    PhysicsEnabled True
    Health 100000.0
    PartIndex 0
    CanSupportOtherParts True
HealthStateData 447fff1e37f04f44bd0ea2f59b36847e
    $::DataContainer
    Objects *nullArray*
    LoosePartPhysics *nullArray*
    SpawnedBangerBlueprint *nullGuid*
    CopyDamageToBanger True
    SpawnedBangerImpulseParams *nullGuid*
    PhysicsEnabled True
    Health 0.0
    PartIndex 4294967295
    CanSupportOtherParts False
JetEngineConfigData 7095a354d8e85f4a8cfc118e10f9732a
    $::EngineConfigData
        $::DataContainer
        Position::Vec3
            x 0.0
            y 0.0
            z 0.10000000149
        RpmCurvePoints::array
            member 0.0
            member 10000.0
        TorqueCurvePoints::array
            member 0.0
            member 500.0
        RpmMin 0.0
        RpmMax 10000.0
        RpmCut 9500.0
        EnginePowerMultiplier 5.0
        InternalAccelerationFactor 5.0
        InternalDeaccelerationFactor 0.5
        Boost::Boost
            ForwardStrength 1.0
            ReverseStrength 1.0
            DissipationTime 1.0
            RecoveryTime 1.0
            CrawlStrength 1.0
            AccelerationScale 1.0
    DirectionVectorIndex 2
    ForceMagnitudeMultiplier 5.0
    AngleInputYMultiplier 20.0
    AngleInputPitchMultiplier 20.0
    MaxVelocity 550.0
    IsTurnable True
    IsWaterJetEngine False
    PowerFadeOutRange::Vec2
        x 1000.0
        y 1500.0
LogicReferenceObjectData f7a3f4fe645bf8418faf853cd9adc706
    $::ReferenceObjectData
        $::GameObjectData
            $::GameDataContainer
                $::DataContainer
            IsEventConnectionTarget 3
            IsPropertyConnectionTarget 2
            IndexInBlueprint 9
        BlueprintTransform::LinearTransform
            right::Vec3
                x 1.0
                y 0.0
                z 0.0
            up::Vec3
                x 0.0
                y 1.0
                z 0.0
            forward::Vec3
                x 0.0
                y 0.0
                z 1.0
            trans::Vec3
                x 0.0
                y 0.0
                z 0.0
        Blueprint vehicles/common/defaultmissilehud/60d8466487e6d14fc0f628f0a850fa18
        ObjectVariation *nullGuid*
        StreamRealm StreamRealm_None
        CastSunShadowEnable True
        Excluded False
    SubRealm SubRealm_All
LogicVisualEnvironmentEntityData 98d593c6b6f11342ab2b1e454b00c5be
    $::EntityData
        $::GameObjectData
            $::GameDataContainer
                $::DataContainer
            IsEventConnectionTarget 0
            IsPropertyConnectionTarget 3
            IndexInBlueprint 3
    VisualEnvironment fx/visualenviroments/fullscreen/ve_tankscreen_fullstatic/e4eb4a4887b63e47adb9cf38c9be2962
    Visibility 1.0
LogicVisualEnvironmentEntityData 8d86095b64541948bb4aa57a10b48d09
    $::EntityData
        $::GameObjectData
            $::GameDataContainer
                $::DataContainer
            IsEventConnectionTarget 0
            IsPropertyConnectionTarget 3
            IndexInBlueprint 4
    VisualEnvironment fx/visualenviroments/fullscreen/ve_bw_mfd/c679c2dd8d2d3043b6d8bc7e61b917cc
    Visibility 1.0
MotionDampingData 6b70992e0fb27c4ea33aba7ca09d05f6
    $::DataContainer
    LinearModifier::Vec3
        x 1.0
        y 1.0
        z 1.0
    Pitch 0.20000000298
    Yaw 0.20000000298
    Roll 0.20000000298
    Linear 0.0
PhysicsEntityData c30243a7ef1df8bd7a91af82052f101c
    $::EntityData
        $::GameObjectData
            $::GameDataContainer
                $::DataContainer
            IsEventConnectionTarget 3
            IsPropertyConnectionTarget 3
            IndexInBlueprint -1
    Asset *nullGuid*
    ScaledAssets::array
        member 220ce4176ec153b6b808a8b3d8ae4d67
    RigidBodies::array
        member 423c150c878c5d1b4b63fb716a0c01d0
        member 200d3152f72557f6e1f1ff133d2e9437
    EncapsulatePartsInLists False
    FloatPhysics *nullGuid*
    Mass 1000010.0
    InertiaModifier::Vec3
        x 1.0
        y 1.0
        z 1.0
    Friction 1000010.0
    Restitution 1000010.0
    AngularVelocityDamping -1.0
    LinearVelocityDamping -1.0
    Proximity *nullGuid*
    Constraints *nullArray*
    MovableParts True
RemoteEntryComponentData b481017b5fd6f843af50caef929198c0
    $::EntryComponentData
        $::ComponentData
            $::GameObjectData
                $::GameDataContainer
                    $::DataContainer
                IsEventConnectionTarget 3
                IsPropertyConnectionTarget 3
                IndexInBlueprint -1
            Transform::LinearTransform
                right::Vec3
                    x 1.0
                    y 0.0
                    z 0.0
                up::Vec3
                    x 0.0
                    y 1.0
                    z 0.0
                forward::Vec3
                    x 0.0
                    y 0.0
                    z 1.0
                trans::Vec3
                    x 0.0
                    y 0.0
                    z 0.0
            Components *nullArray*
            Excluded False
        EntryClass ecPrimary
        AIData e1cdb9fe05b60bc476000a79989fc18c
        ForbiddenForHuman False
        InputConceptDefinition input/venicemavinputconcepts/d25a32e46f90964f875ad95fbce2153f
        InputMapping input/defaultvehicleinputmapping/ca8f6a5c3f2dd74c84331120c9a89dfe
        InputCurves *nullArray*
        HudData::EntryComponentHudData
            Index 0
            Frustum False
            Visible True
            SeatType EST_Driver
            MaximizeMiniMapOnEntry False
        EntryOrderNumber 0
        EnterImpulse 0.0
        EntryRadius 0.0
        IsAllowedToExitInAir False
        IsShielded False
        LockSoldierAimingToEntry True
        ShowSoldierInEntry True
        Show1pSoldierInEntry False
        SoldierTransitionInvisbleTime 0.0750000029802
        NumberOfStances 1
        StancesEnabled False
        EntrySpottingSettings ESSDefault
        ShowSoldierWeaponInEntry False
        Show1pSoldierInEntryForPlayerOnly False
        HideSoldierForPassengers False
        Show3pSoldierWeaponInEntry True
        ShowSoldierGearInEntry False
        PoseConstraints::PoseConstraintsData
            StandPose True
            CrouchPose True
            PronePose True
        SoldierOffset::Vec3
            x 0.0
            y 0.0
            z 0.0
        EntryComponentSound *nullGuid*
        TriggerEventOnKey EIAUndefined
RigidBodyData 423c150c878c5d1b4b63fb716a0c01d0
    $::DataContainer
    RigidBodyType RBTypeCollision
    Mass 5000.0
    Friction 0.5
    Restitution 0.40000000596
    InertiaModifier::Vec3
        x 1.0
        y 1.0
        z 1.0
    AngularVelocityDamping -1.0
    LinearVelocityDamping -1.0
    InteractionToolkitCollisionVolumeId 0
    MotionType RigidBodyMotionType_Dynamic
    QualityType RigidBodyQualityType_Invalid
    CollisionLayer RigidBodyCollisionLayer_VehicleLayer
    FloatPhysics *nullGuid*
    Constraints *nullArray*
RigidBodyData 200d3152f72557f6e1f1ff133d2e9437
    $::DataContainer
    RigidBodyType RBTypeRaycast
    Mass 0.0
    Friction 0.5
    Restitution 0.40000000596
    InertiaModifier::Vec3
        x 1.0
        y 1.0
        z 1.0
    AngularVelocityDamping -1.0
    LinearVelocityDamping -1.0
    InteractionToolkitCollisionVolumeId 0
    MotionType RigidBodyMotionType_Fixed
    QualityType RigidBodyQualityType_Invalid
    CollisionLayer RigidBodyCollisionLayer_Invalid
    FloatPhysics *nullGuid*
    Constraints *nullArray*
SequenceEntityData 97b7d351ed298944a208acc5482ddc03
    $::EntityData
        $::GameObjectData
            $::GameDataContainer
                $::DataContainer
            IsEventConnectionTarget 2
            IsPropertyConnectionTarget 3
            IndexInBlueprint 2
    Events::array
        member::SequenceEventData
            Event::EventSpec
                Id -115595936
            Time 6498
    SequenceStartTime 0
    SequenceLength 7000
    Looping False
    AutoStart False
    AutoPlayFirstFrame False
    PlayInReverse False
    Realm Realm_ClientAndServer
    PropertyTracks::array
        member e0c49fe70a8309488e39a66049692ac9
    CustomSequenceTracks *nullArray*
    ClientUpdatePass UpdatePass_PostFrame
    ServerUpdatePass UpdatePass_PreSim
    ExternalTime 0.0
StaticCameraData 4ab411ffc0286641ad192573ed8d0c0d
    $::TargetCameraData
        $::CameraData
            $::GameObjectData
                $::GameDataContainer
                    $::DataContainer
                IsEventConnectionTarget 3
                IsPropertyConnectionTarget 3
                IndexInBlueprint -1
            OcclusionRayOffset::Vec3
                x 0.0
                y 0.0
                z 0.0
            PreFadeTime 0.0
            FadeTime 0.0
            FadeWaitTime 0.0
            StayFadedWhileStreaming False
            ViewFx *nullGuid*
            NearPlane -1.0
            ShadowViewDistanceScale 1.0
            SoundOcclusion 0.0
            SoundListenerRadius 0.5
            ShakeFactor 1.0
        Hud::HudData
            CrosshairScaleMin 0.0
            CrosshairScaleMax 5.0
            CrosshairOpacityMin 1.0
            CrosshairOpacityMax 0.10000000149
            CrosshairOpacityModifier 1.0
            CrosshairTypeId *nullString*
            WeaponClass *nullString*
            ShowMinimap True
            HideAmmo False
            LowAmmoWarning 0.300000011921
            ReloadPrompt 0.300000011921
            InfiniteAmmo False
            HideCrosshairWhenAimOnFriend True
            UseRenderTarget True
            RenderTargetIndex 0
            HudPropertyList 9dd31d1e6aea9a4b923ca761254d1b4f
            UseRangeMeter True
            UseAimWarning True
            UsePredictedSight False
            UseWeaponOrientations False
            UseVelocityVectorMarker False
            UseLockingController False
            UseThrust True
            UseGForce True
            UseSkidSlip True
            UseClimbRate True
            SeaLevelAltFreq 0.0
            CameraShakeModifier 1.0
        UIParts *nullArray*
    LeftCurve *nullArray*
    RightCurve *nullArray*
    UpCurve *nullArray*
    DownCurve *nullArray*
    MirrorHorizontalCurves False
    MirrorVerticalCurves False
    LoosePartPhysics *nullArray*
    LeftYawAngle 0.0
    RightYawAngle 0.0
    UpPitchAngle 0.0
    DownPitchAngle 0.0
    AverageFilterFrames 10
    YawInputAction EIARoll
    PitchInputAction EIAPitch
    AccumulateInput True
    ResetAccumulatedInputOnViewChange True
    YawSensitivityNonZoomed 0.0
    YawSensitivityZoomed 0.0
    PitchSensitivityNonZoomed 0.0
    PitchSensitivityZoomed 0.0
TeamFilterEntityData 02719a0bb2f6364ba244b682fcb09719
    $::GameEntityData
        $::SpatialEntityData
            $::EntityData
                $::GameObjectData
                    $::GameDataContainer
                        $::DataContainer
                    IsEventConnectionTarget 1
                    IsPropertyConnectionTarget 3
                    IndexInBlueprint 11
            Transform::LinearTransform
                right::Vec3
                    x 1.0
                    y 0.0
                    z 0.0
                up::Vec3
                    x 0.0
                    y 1.0
                    z 0.0
                forward::Vec3
                    x 0.0
                    y 0.0
                    z 1.0
                trans::Vec3
                    x 0.0
                    y 0.0
                    z 0.0
        Enabled True
        Components *nullArray*
        RuntimeComponentCount 0
    Realm Realm_Server
    InvertFilter False
    Team Team1
    GenerateEventForEveryMatchingTeamMember False
TeamFilterEntityData 21792ca8b8e55644ac3e2c27f13d4be3
    $::GameEntityData
        $::SpatialEntityData
            $::EntityData
                $::GameObjectData
                    $::GameDataContainer
                        $::DataContainer
                    IsEventConnectionTarget 1
                    IsPropertyConnectionTarget 3
                    IndexInBlueprint 15
            Transform::LinearTransform
                right::Vec3
                    x 1.0
                    y 0.0
                    z 0.0
                up::Vec3
                    x 0.0
                    y 1.0
                    z 0.0
                forward::Vec3
                    x 0.0
                    y 0.0
                    z 1.0
                trans::Vec3
                    x 0.0
                    y 0.0
                    z 0.0
        Enabled True
        Components *nullArray*
        RuntimeComponentCount 0
    Realm Realm_Server
    InvertFilter False
    Team Team2
    GenerateEventForEveryMatchingTeamMember False
UIPartPropertyList 9dd31d1e6aea9a4b923ca761254d1b4f
    $::DataContainer
    HudPropertyList::array
        member::UIPartProperties
            Identifier HCI_RangeMeter
            Range 200.0
            Frequency 6.0
            CompensateFreelook False
VehicleBlueprint 2ebad30d34441c3783830e11272d7f1c #primary instance
    $::ObjectBlueprint
        $::Blueprint
            $::EntityBusData
                $::DataBusData
                    $::Asset
                        $::DataContainer
                        Name Vehicles/common/WeaponData/AGM-144_Hellfire_TV
                    PropertyConnections::array
                        member::PropertyConnection
                            Source 06258ce680f698418750cc9a6106beba
                            Target 9ec2e9da1d05d745b67faba0a96f737a
                            SourceFieldId -709588
                            TargetFieldId 225375086
                        member::PropertyConnection
                            Source 943c18d9dcd7099830ca721793bb2e04
                            Target 186cc8c53b10ba4fbf5ee066fcbbbbf2
                            SourceFieldId -1835991333
                            TargetFieldId 1718513826
                        member::PropertyConnection
                            Source 186cc8c53b10ba4fbf5ee066fcbbbbf2
                            Target 517f7c70fd3f614aa50fca8d007e97f9
                            SourceFieldId 193453899
                            TargetFieldId 225375086
                        member::PropertyConnection
                            Source d23fb7acc765d14b9a712858417df2f3
                            Target 186cc8c53b10ba4fbf5ee066fcbbbbf2
                            SourceFieldId 193453899
                            TargetFieldId 1718513827
                        member::PropertyConnection
                            Source 97b7d351ed298944a208acc5482ddc03
                            Target d23fb7acc765d14b9a712858417df2f3
                            SourceFieldId -702042979
                            TargetFieldId 193450867
                        member::PropertyConnection
                            Source 06258ce680f698418750cc9a6106beba
                            Target f7a3f4fe645bf8418faf853cd9adc706
                            SourceFieldId -709588
                            TargetFieldId 567023394
                    LinkConnections *nullArray*
                EventConnections::array
                    member::EventConnection
                        Source 9ec2e9da1d05d745b67faba0a96f737a
                        Target 8d86095b64541948bb4aa57a10b48d09
                        SourceEvent::EventSpec
                            Id -1433512622
                        TargetEvent::EventSpec
                            Id -1952177180
                        TargetType EventConnectionTargetType_Client
                    member::EventConnection
                        Source 9ec2e9da1d05d745b67faba0a96f737a
                        Target 8d86095b64541948bb4aa57a10b48d09
                        SourceEvent::EventSpec
                            Id -81881639
                        TargetEvent::EventSpec
                            Id -117303631
                        TargetType EventConnectionTargetType_Client
                    member::EventConnection
                        Source 517f7c70fd3f614aa50fca8d007e97f9
                        Target 98d593c6b6f11342ab2b1e454b00c5be
                        SourceEvent::EventSpec
                            Id -81881639
                        TargetEvent::EventSpec
                            Id -117303631
                        TargetType EventConnectionTargetType_Client
                    member::EventConnection
                        Source 9ec2e9da1d05d745b67faba0a96f737a
                        Target 98d593c6b6f11342ab2b1e454b00c5be
                        SourceEvent::EventSpec
                            Id -81881639
                        TargetEvent::EventSpec
                            Id -117303631
                        TargetType EventConnectionTargetType_Client
                    member::EventConnection
                        Source 9ec2e9da1d05d745b67faba0a96f737a
                        Target 77aff0109ccb6b478da84849257ba103
                        SourceEvent::EventSpec
                            Id -1433512622
                        TargetEvent::EventSpec
                            Id 2089008817
                        TargetType EventConnectionTargetType_Client