AIEntryData 8becbf08049277ee79b6f815e7e0a7ba
    $::GameAIEntryData
        $::Asset
            $::DataContainer
            Name *nullString*
    EquipmentType *nullGuid*
    Armament *nullGuid*
    Mobility *nullGuid*
    StrengthType Infantry
    ReuseTime 0.0
    Forbidden True
    HasExposedSoldier False
    InterludeOnly False
    InvalidForAI False
AIEntryData 9ab38232a5a1b407e3e33aab1a82c20f
    $::GameAIEntryData
        $::Asset
            $::DataContainer
            Name *nullString*
    EquipmentType *nullGuid*
    Armament *nullGuid*
    Mobility *nullGuid*
    StrengthType Infantry
    ReuseTime 0.0
    Forbidden True
    HasExposedSoldier False
    InterludeOnly False
    InvalidForAI False
AIWeaponData 93a531babdba3b9ec0973db096e835e4
    $::GameAIWeaponData
        $::Asset
            $::DataContainer
            Name *nullString*
    Strengths::Strengths
        Infantry 0.0
        LightArmour 0.0
        HeavyArmour 0.0
        Helicopter 0.0
    Indirect False
    IsAiAllowed True
    UseFromCover False
    DisableWeaponSway False
    MinRange 0.0
    MaxRange 0.0
    OptimalRangePercentage 0.0
    ReloadBehavior RbInCover
    MinExtraReloadTime 0.0
    MaxExtraReloadTime 0.0
    AllowedAgainstImmortals True
    CanSuppress True
    CanAltAttack False
    IsStandStill False
    IsMelee False
    IsBlindFireAllowed True
    WaitTimeBeforeFire 0.0
    BurstLimitNear::BurstLimit
        Min 0
        Max 0
    BurstLimitFar::BurstLimit
        Min 0
        Max 0
    MinBurstCoolDownTime 1.0
    MaxBurstCoolDownTime 2.0
    LostTargetBurstCoolDownModifier 2.0
    AimTransitionFireDelay 0.34999999404
    AimAngularVelocity 0.0
    AngleToTargetSnap 0.0
    AimWhileReloading True
    UseZoom False
    AimOrigin AoDefault
    GravityModifier 1.0
    AimHighIndirectPath False
    MinimumAccuracyBeforeFiring 7.0
    AdditionalMinimumAccuracyAtMinRange 0.0
    SweepFirstAttack False
    SweepType SstTargetLost
    SweepDistance 0.0
    SweepTime 0.5
    InnerInaccurateDistance 5.0
    OuterInaccurateDistance 10.0
    InaccuracyFollowsTarget True
    UseInaccuracyAtCloseRange False
    StartAccuracyPercentage 0.5
    FinalAccuracyPercentage 0.5
AeroDynamicPhysicsData 3e56c5b25a9d784186d07bb7ed577f52
    $::DataContainer
    BodyDrag::Vec3
        x 0.0
        y 0.0
        z 0.00350000010803
    BodyDragOffsetYZ::Vec3
        x 0.0
        y 0.0
        z 0.0
    BodyDragOffsetXZ::Vec3
        x 0.0
        y 0.0
        z 0.0
    BodyDragOffsetXY::Vec3
        x 0.0
        y 0.0
        z 0.0
AirRadarData b2ea8f36adc7bc458416fdf787c19bf9
    $::UIPartData
        $::DataContainer
    RadarRange 1500.0
    RadarSensitivity -1.0
    HeatSensitivity 1.0
    TrackLaserPaintedObjects True
    TrackOnlyUsedVehicles True
    FriendlyIcon UIHudIcon_SnapOvalArrow
    EnemyIcon UIHudIcon_SpottedPosition
    MissileIcon UIHudIcon_NonSelectableSpawnPoint
    LaserPaintedIcon UIHudIcon_SelectedSpawnPoint
    CenterIcon UIHudIcon_Jet
    NorthIcon UIHudIcon_North
    SouthIcon UIHudIcon_North
    EastIcon UIHudIcon_North
    WestIcon UIHudIcon_North
    SubScreen::SubScreenData
        ProjectionAngleX 0.0
        ProjectionAngleY 0.0
        ProjectionAngleZ 0.0
        ScreenPosition::Vec3
            x 0.924000024796
            y 0.0
            z 0.15000000596
        ScreenSize 0.140000000596
        IconSize 20.0
        ScaleIconSizeByDepthStrength 1.0
        UseRenderTarget False
        RenderTargetIndex 0
        RenderTargetApectRatio 1.54999995232
    UseCameraComponentTransform False
AirRadarData 99cb542a14fe3e4e88417e4ed155b523
    $::UIPartData
        $::DataContainer
    RadarRange 1500.0
    RadarSensitivity -1.0
    HeatSensitivity 1.0
    TrackLaserPaintedObjects True
    TrackOnlyUsedVehicles True
    FriendlyIcon UIHudIcon_SnapOvalArrow
    EnemyIcon UIHudIcon_SpottedPosition
    MissileIcon UIHudIcon_NonSelectableSpawnPoint
    LaserPaintedIcon UIHudIcon_SelectedSpawnPoint
    CenterIcon UIHudIcon_Jet
    NorthIcon UIHudIcon_North
    SouthIcon UIHudIcon_North
    EastIcon UIHudIcon_North
    WestIcon UIHudIcon_North
    SubScreen::SubScreenData
        ProjectionAngleX 0.0
        ProjectionAngleY 0.0
        ProjectionAngleZ 0.0
        ScreenPosition::Vec3
            x 0.924000024796
            y 0.0
            z 0.15000000596
        ScreenSize 0.140000000596
        IconSize 20.0
        ScaleIconSizeByDepthStrength 1.0
        UseRenderTarget False
        RenderTargetIndex 0
        RenderTargetApectRatio 1.54999995232
    UseCameraComponentTransform False
AlternateCameraViewData 3501a88ed9ec8547946fc9df322c8314
    $::DataContainer
    FieldOfView 80.0
    AllowFieldOfViewScaling False
    FovTransitionTime 0.10000000149
    WorldSpaceLockEfficiency 0.0
    Mesh vehicles/common/jethudtest_mesh/54c51ac94ff7dd118ed4886091482761
    MaskMeshBlueprint *nullGuid*
    LockMeshToRenderView False
    MeshOffset::Vec3
        x 0.0
        y 0.00999999977648
        z 0.34999999404
    Hud::HudData
        CrosshairScaleMin 0.0
        CrosshairScaleMax 5.0
        CrosshairOpacityMin 1.0
        CrosshairOpacityMax 0.10000000149
        CrosshairOpacityModifier 1.0
        CrosshairTypeId f16_pilot
        WeaponClass *nullString*
        ShowMinimap False
        HideAmmo False
        LowAmmoWarning 0.300000011921
        ReloadPrompt 0.300000011921
        InfiniteAmmo False
        HideCrosshairWhenAimOnFriend True
        UseRenderTarget False
        RenderTargetIndex 0
        HudPropertyList *nullGuid*
        UseRangeMeter False
        UseAimWarning True
        UsePredictedSight True
        UseWeaponOrientations False
        UseVelocityVectorMarker True
        UseLockingController True
        UseThrust True
        UseGForce True
        UseSkidSlip False
        UseClimbRate False
        SeaLevelAltFreq 0.0
        CameraShakeModifier 1.0
    FadeToBlack False
    FadeInDuration 0.10000000149
    FadeOutDuration 0.10000000149
    BlackDuration 0.10000000149
    InputSuppression::InputSuppressionData
        SuppressVehicleInput::array
            member::ActionSuppressor
                ActionToSuppress EIAPitch
                SuppressingValue 0.0
            member::ActionSuppressor
                ActionToSuppress EIARoll
                SuppressingValue 0.0
    ToggleViewChange False
    UseProfileOptionForToggleViewChange False
    FLIREnabled False
    ScreenExposureAreaScale 1.0
BangerSpawnImpulseParams 38452d8637ad5e4da236d2f62ef63a27
    $::DataContainer
    MinHorizontalAngle -90.0
    MaxHorizontalAngle 90.0
    MinVerticalAngle 45.0
    MaxVerticalAngle 85.0
    MinStrength 15000.0
    MaxStrength 15000.0
    WaterStrengthModifier 0.00700000021607
    LinearDamping 0.0
    AngularDamping 0.0500000007451
BangerSpawnImpulseParams 59438dc647794c43ad7392351b604d44
    $::DataContainer
    MinHorizontalAngle -90.0
    MaxHorizontalAngle -45.0
    MinVerticalAngle 45.0
    MaxVerticalAngle 45.0
    MinStrength 15000.0
    MaxStrength 15000.0
    WaterStrengthModifier 0.00700000021607
    LinearDamping 0.0
    AngularDamping 0.0500000007451
BangerSpawnImpulseParams df13437c4f2c0a4a936126dc9b2129fd
    $::DataContainer
    MinHorizontalAngle 45.0
    MaxHorizontalAngle 90.0
    MinVerticalAngle 45.0
    MaxVerticalAngle 90.0
    MinStrength 15000.0
    MaxStrength 15000.0
    WaterStrengthModifier 0.00700000021607
    LinearDamping 0.0
    AngularDamping 0.0500000007451
BangerSpawnImpulseParams 06bed2384b348641910305969c09542d
    $::DataContainer
    MinHorizontalAngle -90.0
    MaxHorizontalAngle 90.0
    MinVerticalAngle 45.0
    MaxVerticalAngle 85.0
    MinStrength 15000.0
    MaxStrength 15000.0
    WaterStrengthModifier 0.00700000021607
    LinearDamping 0.0
    AngularDamping 0.0500000007451
CameraComponentData bf024e671d385f4bb7f1c2e83a2edb40
    $::ComponentData
        $::GameObjectData
            $::GameDataContainer
                $::DataContainer
            IsEventConnectionTarget 3
            IsPropertyConnectionTarget 3
            IndexInBlueprint -1
        Transform::LinearTransform
            right::Vec3
                x 1.0
                y 0.0
                z 0.0
            up::Vec3
                x 0.0
                y 0.994143605232
                z 0.108067072928
            forward::Vec3
                x 0.0
                y -0.108067072928
                z 0.994143605232
            trans::Vec3
                x 0.0
                y 0.982785701752
                z 0.963409543037
        Components *nullArray*
        Excluded False
    Camera 4ccd5be686fdaa4788c284375cc6b9b4
    FieldOfView 45.0
    ForceFieldOfView -1.0
    EnableCameraMesh True
    AlternateView 3501a88ed9ec8547946fc9df322c8314
    RegularView::RegularCameraViewData
        FLIREnabled False
        InputSuppression::InputSuppressionData
            SuppressVehicleInput *nullArray*
        FieldOfView 80.0
        AllowFieldOfViewScaling False
        Mesh vehicles/common/jethudtest_mesh/54c51ac94ff7dd118ed4886091482761
        MaskMeshBlueprint *nullGuid*
        LockMeshToRenderView False
        MeshOffset::Vec3
            x 0.0
            y 0.00999999977648
            z 0.34999999404
        ScreenExposureAreaScale 1.0
    AlternateViewEnabled True
    FreezeHeight 0.0
    IsFirstPerson True
    SoldierAnimatedCamera::SoldierAnimatedCameraData
        EnableFeature False
        CameraTransitionTime 0.5
    ReceiveImpulsesAsThirdPerson False
    UseCameraTransition False
    CameraTransitionPos::Vec3
        x 0.0
        y 0.0
        z 0.0
    CameraTransitionTime 0.10000000149
    MeshParentComponentNumber 0
    StanceData::StanceCameraData
        ValidStances::array
            member 0
            member 1
        DefaultCameraForStances::array
            member 0
            member 1
    CameraSoundData *nullGuid*
    IgnoreOwnerOrientation False
CameraComponentData 70b9d19cd19d41478ead991f420085ea
    $::ComponentData
        $::GameObjectData
            $::GameDataContainer
                $::DataContainer
            IsEventConnectionTarget 3
            IsPropertyConnectionTarget 3
            IndexInBlueprint -1
        Transform::LinearTransform
            right::Vec3
                x 1.0
                y 0.0
                z 0.0
            up::Vec3
                x 0.0
                y 0.987364292145
                z 0.158466592431
            forward::Vec3
                x 0.0
                y -0.158466592431
                z 0.987364292145
            trans::Vec3
                x 0.0
                y 1.44303333759
                z -0.825866699219
        Components *nullArray*
        Excluded False
    Camera db181eaef593a64cb0809117bf30fb71
    FieldOfView 55.0
    ForceFieldOfView -1.0
    EnableCameraMesh True
    AlternateView *nullGuid*
    RegularView::RegularCameraViewData
        FLIREnabled False
        InputSuppression::InputSuppressionData
            SuppressVehicleInput *nullArray*
        FieldOfView 55.0
        AllowFieldOfViewScaling False
        Mesh levels/sp_jet/huds/helmethud_mesh/494920659abb183a97c7ef9463a6aa93
        MaskMeshBlueprint *nullGuid*
        LockMeshToRenderView False
        MeshOffset::Vec3
            x 0.0
            y 0.0
            z 0.0599999986589
        ScreenExposureAreaScale 1.0
    AlternateViewEnabled True
    FreezeHeight 0.0
    IsFirstPerson True
    SoldierAnimatedCamera::SoldierAnimatedCameraData
        EnableFeature True
        CameraTransitionTime 0.5
    ReceiveImpulsesAsThirdPerson False
    UseCameraTransition False
    CameraTransitionPos::Vec3
        x 0.0
        y 0.0
        z 0.0
    CameraTransitionTime 0.10000000149
    MeshParentComponentNumber 0
    StanceData::StanceCameraData
        ValidStances::array
            member 0
            member 1
        DefaultCameraForStances::array
            member 0
            member 1
    CameraSoundData *nullGuid*
    IgnoreOwnerOrientation False
Curve2D c07516e8f80c064f9f562e9c4098fac6
    $::DataContainer
    Curve::array
        member::Vec2
            x -28.0
            y -10.0
        member::Vec2
            x -24.0
            y -6.0
        member::Vec2
            x -10.0
            y -2.0
        member::Vec2
            x -0.75
            y 0.0
        member::Vec2
            x 0.75
            y 0.0
        member::Vec2
            x 10.0
            y 2.0
        member::Vec2
            x 24.0
            y 6.0
        member::Vec2
            x 28.0
            y 10.0
Curve2D 5ed1b39fb105eb4faab5a40269916ebc
    $::DataContainer
    Curve::array
        member::Vec2
            x -12.5
            y 2.25
        member::Vec2
            x -7.5
            y 1.25
        member::Vec2
            x -5.0
            y 0.10000000149
        member::Vec2
            x -2.0
            y 0.0500000007451
        member::Vec2
            x 0.0
            y 0.0299999993294
        member::Vec2
            x 2.0
            y 0.0500000007451
        member::Vec2
            x 5.0
            y 0.10000000149
        member::Vec2
            x 7.5
            y 1.25
        member::Vec2
            x 12.5
            y 2.25
Curve2D d2ef626c16759847a9a1c5fa7e5db0d9
    $::DataContainer
    Curve::array
        member::Vec2
            x -20.0
            y -4.0
        member::Vec2
            x -18.0
            y -4.0
        member::Vec2
            x -10.0
            y -2.0
        member::Vec2
            x 5.5
            y 3.0
        member::Vec2
            x 24.0
            y 6.0
        member::Vec2
            x 48.0
            y 5.0
        member::Vec2
            x 72.0
            y 0.0
        member::Vec2
            x 75.0
            y 0.0
Curve2D 875aa6e9e325e4408249b6eb2a7cdd72
    $::DataContainer
    Curve::array
        member::Vec2
            x -40.0
            y 100.0
        member::Vec2
            x -30.0
            y 10.0
        member::Vec2
            x -12.5
            y 2.25
        member::Vec2
            x -7.5
            y 1.25
        member::Vec2
            x -5.0
            y 0.10000000149
        member::Vec2
            x -2.0
            y 0.0500000007451
        member::Vec2
            x 0.0
            y 0.0299999993294
        member::Vec2
            x 2.0
            y 0.0500000007451
        member::Vec2
            x 5.0
            y 0.10000000149
        member::Vec2
            x 7.5
            y 1.25
        member::Vec2
            x 12.5
            y 2.25
        member::Vec2
            x 30.0
            y 10.0
        member::Vec2
            x 40.0
            y 100.0
Curve2D 2991ac291668974b866bdd47fd8559c0
    $::DataContainer
    Curve::array
        member::Vec2
            x -28.0
            y -5.0
        member::Vec2
            x -24.0
            y -3.0
        member::Vec2
            x -1.29999995232
            y -1.0
        member::Vec2
            x -0.75
            y 0.0
        member::Vec2
            x 0.75
            y 0.0
        member::Vec2
            x 1.29999995232
            y 1.0
        member::Vec2
            x 24.0
            y 3.0
        member::Vec2
            x 28.0
            y 5.0
Curve2D 9ec9751c7851f54b90276d3e7699ad5d
    $::DataContainer
    Curve::array
        member::Vec2
            x -90.0
            y 50.0
        member::Vec2
            x -40.0
            y 10.0
        member::Vec2
            x -30.0
            y 0.0
        member::Vec2
            x 30.0
            y 0.0
        member::Vec2
            x 40.0
            y 10.0
        member::Vec2
            x 90.0
            y 50.0
Curve2D baa33072f789c042aa7365a836632892
    $::DataContainer
    Curve::array
        member::Vec2
            x -60.0
            y 0.0
        member::Vec2
            x -48.0
            y -6.0
        member::Vec2
            x -24.0
            y -9.0
        member::Vec2
            x -5.5
            y -1.5
        member::Vec2
            x 10.0
            y 1.5
        member::Vec2
            x 18.0
            y 9.0
        member::Vec2
            x 48.0
            y 6.0
        member::Vec2
            x 72.0
            y 0.0
        member::Vec2
            x 75.0
            y 0.0
Curve2D 1d626cedd8743945b96cb29aa86ffefb
    $::DataContainer
    Curve::array
        member::Vec2
            x -45.0
            y 1.20000004768
        member::Vec2
            x -12.0
            y 1.20000004768
        member::Vec2
            x 0.0
            y 0.75
        member::Vec2
            x 12.0
            y 2.0
        member::Vec2
            x 45.0
            y 2.0
Curve2D 5c2955845aafae49b15a7fdb40b7447d
    $::DataContainer
    Curve::array
        member::Vec2
            x 0.0
            y 1.0
        member::Vec2
            x 175.0
            y 1.0
        member::Vec2
            x 275.0
            y 1.10000002384
        member::Vec2
            x 300.0
            y 0.850000023842
        member::Vec2
            x 325.0
            y 0.649999976158
        member::Vec2
            x 350.0
            y 0.34999999404
        member::Vec2
            x 400.0
            y 0.15000000596
        member::Vec2
            x 800.0
            y 0.15000000596
DelayEntityData fb85fabc1915a24491998a15987f7305
    $::EntityData
        $::GameObjectData
            $::GameDataContainer
                $::DataContainer
            IsEventConnectionTarget 0
            IsPropertyConnectionTarget 3
            IndexInBlueprint 26
    Delay 3.0
    Realm Realm_Client
    AutoStart False
    RunOnce False
    RemoveDuplicateEvents True
DelayEntityData 4853eb342fe74a46a61cdb334d4fc768
    $::EntityData
        $::GameObjectData
            $::GameDataContainer
                $::DataContainer
            IsEventConnectionTarget 0
            IsPropertyConnectionTarget 3
            IndexInBlueprint 27
    Delay 1.0
    Realm Realm_Client
    AutoStart False
    RunOnce False
    RemoveDuplicateEvents True
EffectComponentData bfe2e920b408234a84e303e9b4356216
    $::ComponentData
        $::GameObjectData
            $::GameDataContainer
                $::DataContainer
            IsEventConnectionTarget 3
            IsPropertyConnectionTarget 3
            IndexInBlueprint -1
        Transform::LinearTransform
            right::Vec3
                x -1.0
                y 0.0
                z 8.74227765735e-08
            up::Vec3
                x -1.37999439774e-31
                y 0.999999940395
                z -1.57852960401e-24
            forward::Vec3
                x -8.7422769468e-08
                y -1.57852960401e-24
                z -0.999999940395
            trans::Vec3
                x -6.48522949219
                y 0.27107411623
                z -3.28252625465
        Components *nullArray*
        Excluded False
    Effect fx/vehicles/misc/fx_air_contrail_01/5522eb3e1fcffce9304671e757e36006
    AutoStart False
    SnapToWaterSurface False
    EmitterParameter1 0.0
    EmitterParameter2 0.0
    EmitterParameter3 0.0
EffectComponentData c842f16fdef554479b8e7e6fc275d1f6
    $::ComponentData
        $::GameObjectData
            $::GameDataContainer
                $::DataContainer
            IsEventConnectionTarget 3
            IsPropertyConnectionTarget 3
            IndexInBlueprint -1
        Transform::LinearTransform
            right::Vec3
                x 1.0
                y -8.74227765735e-08
                z 8.74227765735e-08
            up::Vec3
                x -8.74227765735e-08
                y -1.0
                z -1.57852960401e-24
            forward::Vec3
                x 8.74227765735e-08
                y -7.64274186066e-15
                z -1.0
            trans::Vec3
                x 6.48522949219
                y 0.27107411623
                z -3.28252625465
        Components *nullArray*
        Excluded False
    Effect fx/vehicles/misc/fx_air_contrail_01/5522eb3e1fcffce9304671e757e36006
    AutoStart False
    SnapToWaterSurface False
    EmitterParameter1 0.0
    EmitterParameter2 0.0
    EmitterParameter3 0.0
EffectComponentData c3eb4c11a6a2fe4e913df7a5a1aa2279
    $::ComponentData
        $::GameObjectData
            $::GameDataContainer
                $::DataContainer
            IsEventConnectionTarget 0
            IsPropertyConnectionTarget 3
            IndexInBlueprint -1
        Transform::LinearTransform
            right::Vec3
                x 1.0
                y 4.37113882867e-08
                z -4.37113882867e-08
            up::Vec3
                x -4.37113882867e-08
                y 1.0
                z 3.94632401002e-25
            forward::Vec3
                x 4.37113882867e-08
                y 1.91068546516e-15
                z 1.0
            trans::Vec3
                x 0.466730475426
                y 0.124445073307
                z -7.80992889404
        Components *nullArray*
        Excluded False
    Effect fx/vehicles/exhaust/fx_airplane_afterburner_01/ce4aa29e2275da43924e6ff84731a518
    AutoStart False
    SnapToWaterSurface False
    EmitterParameter1 0.0
    EmitterParameter2 0.0
    EmitterParameter3 0.0
EffectComponentData 277849853644904f8482089ccee18493
    $::ComponentData
        $::GameObjectData
            $::GameDataContainer
                $::DataContainer
            IsEventConnectionTarget 0
            IsPropertyConnectionTarget 3
            IndexInBlueprint -1
        Transform::LinearTransform
            right::Vec3
                x 1.0
                y 0.0
                z 0.0
            up::Vec3
                x 0.0
                y 1.0
                z 0.0
            forward::Vec3
                x 0.0
                y 0.0
                z 1.0
            trans::Vec3
                x -0.466730475426
                y 0.124445073307
                z -7.80992889404
        Components *nullArray*
        Excluded False
    Effect fx/vehicles/exhaust/fx_airplane_afterburner_01/ce4aa29e2275da43924e6ff84731a518
    AutoStart False
    SnapToWaterSurface False
    EmitterParameter1 0.0
    EmitterParameter2 0.0
    EmitterParameter3 0.0
EffectComponentData 047df00c2947e347b5f8eb0e1b087d08
    $::ComponentData
        $::GameObjectData
            $::GameDataContainer
                $::DataContainer
            IsEventConnectionTarget 0
            IsPropertyConnectionTarget 3
            IndexInBlueprint -1
        Transform::LinearTransform
            right::Vec3
                x 1.0
                y 0.0
                z 0.0
            up::Vec3
                x 0.0
                y 1.0
                z 0.0
            forward::Vec3
                x 0.0
                y 0.0
                z 1.0
            trans::Vec3
                x -0.466730475426
                y 0.124445073307
                z -7.61438131332
        Components *nullArray*
        Excluded False
    Effect fx/vehicles/exhaust/fx_airplane_jetengine_01/73caa9e44a4dcd43bcfe7dfebf70dc45
    AutoStart False
    SnapToWaterSurface False
    EmitterParameter1 0.0
    EmitterParameter2 0.0
    EmitterParameter3 0.0
EffectComponentData 1377f3890d213b4da48c40dd89a126c5
    $::ComponentData
        $::GameObjectData
            $::GameDataContainer
                $::DataContainer
            IsEventConnectionTarget 0
            IsPropertyConnectionTarget 3
            IndexInBlueprint -1
        Transform::LinearTransform
            right::Vec3
                x 1.0
                y 0.0
                z 0.0
            up::Vec3
                x 0.0
                y 1.0
                z 0.0
            forward::Vec3
                x 0.0
                y 0.0
                z 1.0
            trans::Vec3
                x 0.466730475426
                y 0.124445073307
                z -7.61438131332
        Components *nullArray*
        Excluded False
    Effect fx/vehicles/exhaust/fx_airplane_jetengine_01/73caa9e44a4dcd43bcfe7dfebf70dc45
    AutoStart False
    SnapToWaterSurface False
    EmitterParameter1 0.0
    EmitterParameter2 0.0
    EmitterParameter3 0.0
EffectComponentData 8458a2b6c641ea4db840b24def8e3e5d
    $::ComponentData
        $::GameObjectData
            $::GameDataContainer
                $::DataContainer
            IsEventConnectionTarget 0
            IsPropertyConnectionTarget 3
            IndexInBlueprint -1
        Transform::LinearTransform
            right::Vec3
                x 1.0
                y 0.0
                z 0.0
            up::Vec3
                x 0.0
                y 1.0
                z 0.0
            forward::Vec3
                x 0.0
                y 0.0
                z 1.0
            trans::Vec3
                x -0.0506266355515
                y -0.791101455688
                z 1.62570869923
        Components *nullArray*
        Excluded False
    Effect fx/ambient/levelspecific/sp_f18/fx_amb_sp_f18_carrier_steamlauncher_start/4f7faf44097f8a4aa8357ba3dde32bfa
    AutoStart False
    SnapToWaterSurface False
    EmitterParameter1 0.0
    EmitterParameter2 0.0
    EmitterParameter3 0.0
EffectComponentData a8faafb8e499924bae22868a6ae6be90
    $::ComponentData
        $::GameObjectData
            $::GameDataContainer
                $::DataContainer
            IsEventConnectionTarget 0
            IsPropertyConnectionTarget 3
            IndexInBlueprint -1
        Transform::LinearTransform
            right::Vec3
                x 1.0
                y 0.0
                z 0.0
            up::Vec3
                x 0.0
                y 1.0
                z 0.0
            forward::Vec3
                x 0.0
                y 0.0
                z 1.0
            trans::Vec3
                x -1.644084692
                y 0.413087546825
                z -2.97266101837
        Components *nullArray*
        Excluded False
    Effect fx/vehicles/damagestates/healthhigh/airplane/fx_healthhigh_airplane/4e368a56777cc04fbe81a13b3b755698
    AutoStart False
    SnapToWaterSurface False
    EmitterParameter1 0.0
    EmitterParameter2 0.0
    EmitterParameter3 0.0
EffectComponentData b2412b9b57978b4fa9bc5e697a2156ea
    $::ComponentData
        $::GameObjectData
            $::GameDataContainer
                $::DataContainer
            IsEventConnectionTarget 0
            IsPropertyConnectionTarget 2
            IndexInBlueprint -1
        Transform::LinearTransform
            right::Vec3
                x 1.0
                y 0.0
                z 0.0
            up::Vec3
                x 0.0
                y 1.0
                z 0.0
            forward::Vec3
                x 0.0
                y 0.0
                z 1.0
            trans::Vec3
                x 0.0
                y 0.600000023842
                z -5.0
        Components *nullArray*
        Excluded False
    Effect fx/vehicles/damagestates/healthcritical/airplane/fx_healthcritical_airplane/58c029a9f820a2438c52935d4aa26a9a
    AutoStart False
    SnapToWaterSurface False
    EmitterParameter1 0.0
    EmitterParameter2 0.0
    EmitterParameter3 0.0
EffectComponentData 94438d3a0f2882418cbf8c23b584d496
    $::ComponentData
        $::GameObjectData
            $::GameDataContainer
                $::DataContainer
            IsEventConnectionTarget 0
            IsPropertyConnectionTarget 3
            IndexInBlueprint -1
        Transform::LinearTransform
            right::Vec3
                x -1.0
                y 0.0
                z 8.74227765735e-08
            up::Vec3
                x -1.37999439774e-31
                y 0.999999940395
                z -1.57852960401e-24
            forward::Vec3
                x -8.7422769468e-08
                y -1.57852960401e-24
                z -0.999999940395
            trans::Vec3
                x -6.48522949219
                y 0.27107411623
                z -3.28252625465
        Components *nullArray*
        Excluded False
    Effect fx/vehicles/misc/fx_air_contrail_01/5522eb3e1fcffce9304671e757e36006
    AutoStart False
    SnapToWaterSurface False
    EmitterParameter1 0.0
    EmitterParameter2 0.0
    EmitterParameter3 0.0
EffectComponentData ab2cf6bf2ee4e94e9213e7cbd7955bbb
    $::ComponentData
        $::GameObjectData
            $::GameDataContainer
                $::DataContainer
            IsEventConnectionTarget 0
            IsPropertyConnectionTarget 3
            IndexInBlueprint -1
        Transform::LinearTransform
            right::Vec3
                x 1.0
                y -8.74227765735e-08
                z 8.74227765735e-08
            up::Vec3
                x -8.74227765735e-08
                y -1.0
                z -1.57852960401e-24
            forward::Vec3
                x 8.74227765735e-08
                y -7.64274186066e-15
                z -1.0
            trans::Vec3
                x 6.48522949219
                y 0.27107411623
                z -3.28252625465