AIWeaponData b734380a5e5e335fc4b5abbe39476c3f
    $::GameAIWeaponData
        $::Asset
            $::DataContainer
            Name *nullString*
    Strengths::Strengths
        Infantry 0.0
        LightArmour 0.0
        HeavyArmour 0.0
        Helicopter 0.0
    Indirect False
    IsAiAllowed True
    UseFromCover False
    DisableWeaponSway False
    MinRange 0.0
    MaxRange 0.0
    OptimalRangePercentage 0.0
    ReloadBehavior RbInCover
    MinExtraReloadTime 0.0
    MaxExtraReloadTime 0.0
    AllowedAgainstImmortals True
    CanSuppress True
    CanAltAttack False
    IsStandStill False
    IsMelee False
    IsBlindFireAllowed True
    WaitTimeBeforeFire 0.0
    BurstLimitNear::BurstLimit
        Min 0
        Max 0
    BurstLimitFar::BurstLimit
        Min 0
        Max 0
    MinBurstCoolDownTime 1.0
    MaxBurstCoolDownTime 2.0
    LostTargetBurstCoolDownModifier 2.0
    AimTransitionFireDelay 0.34999999404
    AimAngularVelocity 0.0
    AngleToTargetSnap 0.0
    AimWhileReloading True
    UseZoom False
    AimOrigin AoDefault
    GravityModifier 1.0
    AimHighIndirectPath False
    MinimumAccuracyBeforeFiring 7.0
    AdditionalMinimumAccuracyAtMinRange 0.0
    SweepFirstAttack False
    SweepType SstTargetLost
    SweepDistance 0.0
    SweepTime 0.5
    InnerInaccurateDistance 5.0
    OuterInaccurateDistance 10.0
    InaccuracyFollowsTarget True
    UseInaccuracyAtCloseRange False
    StartAccuracyPercentage 0.5
    FinalAccuracyPercentage 0.5
AeroDynamicPhysicsData afdaaa962648d9a93f013da58d78d0cc
    $::DataContainer
    BodyDrag::Vec3
        x 0.035000000149
        y 0.0799999982119
        z 0.00419999985024
    BodyDragOffsetYZ::Vec3
        x 0.0
        y 0.0
        z -0.20000000298
    BodyDragOffsetXZ::Vec3
        x 0.0
        y 0.0
        z 0.0
    BodyDragOffsetXY::Vec3
        x 0.0
        y 0.0
        z 0.0
AlternateCameraViewData 2ea71ef48f6c4319a70377dbac1ecfdf
    $::DataContainer
    FieldOfView 55.0
    AllowFieldOfViewScaling False
    FovTransitionTime 0.10000000149
    WorldSpaceLockEfficiency 0.0
    Mesh vehicles/common/cockpits/helmethud_mesh/194fbf7c3a4cde47b4c61006186c86f9
    MaskMeshBlueprint *nullGuid*
    LockMeshToRenderView True
    MeshOffset::Vec3
        x 0.0
        y 0.0
        z 0.140000000596
    Hud::HudData
        CrosshairScaleMin 0.0
        CrosshairScaleMax 5.0
        CrosshairOpacityMin 1.0
        CrosshairOpacityMax 0.10000000149
        CrosshairOpacityModifier 1.0
        CrosshairTypeId *nullString*
        WeaponClass *nullString*
        ShowMinimap True
        HideAmmo False
        LowAmmoWarning 0.300000011921
        ReloadPrompt 0.300000011921
        InfiniteAmmo False
        HideCrosshairWhenAimOnFriend True
        UseRenderTarget False
        RenderTargetIndex 0
        HudPropertyList a62044b31db103561daefdfefccde718
        UseRangeMeter True
        UseAimWarning True
        UsePredictedSight True
        UseWeaponOrientations True
        UseVelocityVectorMarker False
        UseLockingController True
        UseThrust True
        UseGForce True
        UseSkidSlip True
        UseClimbRate True
        SeaLevelAltFreq 15.0
        CameraShakeModifier 1.0
    FadeToBlack False
    FadeInDuration 0.0
    FadeOutDuration 0.0
    BlackDuration 0.0
    InputSuppression::InputSuppressionData
        SuppressVehicleInput::array
            member::ActionSuppressor
                ActionToSuppress EIAPitch
                SuppressingValue 0.0
            member::ActionSuppressor
                ActionToSuppress EIARoll
                SuppressingValue 0.0
    ToggleViewChange False
    UseProfileOptionForToggleViewChange False
    FLIREnabled False
    ScreenExposureAreaScale 1.0
AlternateCameraViewData 519274e0c991a00f7802efa211220742
    $::DataContainer
    FieldOfView 15.0
    AllowFieldOfViewScaling False
    FovTransitionTime 0.0
    WorldSpaceLockEfficiency 0.0
    Mesh vehicles/common/cockpits/hudholder_mesh/0d0d3399c1eca347911d89dce40eac0c
    MaskMeshBlueprint *nullGuid*
    LockMeshToRenderView True
    MeshOffset::Vec3
        x 0.0
        y 0.0
        z 1.42299997807
    Hud::HudData
        CrosshairScaleMin 0.0
        CrosshairScaleMax 5.0
        CrosshairOpacityMin 1.0
        CrosshairOpacityMax 0.10000000149
        CrosshairOpacityModifier 1.0
        CrosshairTypeId *nullString*
        WeaponClass *nullString*
        ShowMinimap True
        HideAmmo False
        LowAmmoWarning 0.300000011921
        ReloadPrompt 0.300000011921
        InfiniteAmmo False
        HideCrosshairWhenAimOnFriend True
        UseRenderTarget False
        RenderTargetIndex 0
        HudPropertyList 6cd025c233607307eb2e36c1c8c98922
        UseRangeMeter True
        UseAimWarning True
        UsePredictedSight True
        UseWeaponOrientations True
        UseVelocityVectorMarker True
        UseLockingController True
        UseThrust True
        UseGForce True
        UseSkidSlip True
        UseClimbRate True
        SeaLevelAltFreq 15.0
        CameraShakeModifier 1.0
    FadeToBlack True
    FadeInDuration 0.0
    FadeOutDuration 0.0
    BlackDuration 0.0
    InputSuppression::InputSuppressionData
        SuppressVehicleInput::array
            member::ActionSuppressor
                ActionToSuppress EIARoll
                SuppressingValue 0.125
            member::ActionSuppressor
                ActionToSuppress EIAPitch
                SuppressingValue 0.125
    ToggleViewChange True
    UseProfileOptionForToggleViewChange False
    FLIREnabled False
    ScreenExposureAreaScale 1.0
AndEntityData 9f762e1427e54445837b8d209cf7d28a
    $::EntityData
        $::GameObjectData
            $::GameDataContainer
                $::DataContainer
            IsEventConnectionTarget 3
            IsPropertyConnectionTarget 2
            IndexInBlueprint 16
    Realm Realm_Client
    In1 False
    In2 False
AntEnumeration 9c575716003576af0c00b9e973c0a2d4
    $::DataContainer
    AntAsset::AntRef
        AssetId 357078069
    Value 48
AntEnumeration 98ec366726b87efb6538f47370d704ec
    $::DataContainer
    AntAsset::AntRef
        AssetId 357078069
    Value 49
BangerSpawnImpulseParams e0df11a564d18565942d3f66320b8ff0
    $::DataContainer
    MinHorizontalAngle -90.0
    MaxHorizontalAngle 90.0
    MinVerticalAngle 45.0
    MaxVerticalAngle 85.0
    MinStrength 15000.0
    MaxStrength 15000.0
    WaterStrengthModifier 0.00700000021607
    LinearDamping 0.0
    AngularDamping 0.0500000007451
BoolEntityData 083cd7d980ba584fd3d7cf0ac8f87c37
    $::EntityData
        $::GameObjectData
            $::GameDataContainer
                $::DataContainer
            IsEventConnectionTarget 1
            IsPropertyConnectionTarget 3
            IndexInBlueprint 5
    Realm Realm_Server
    DefaultValue False
BoolEntityData e543b666cee7ed429d82aa443a3c1455
    $::EntityData
        $::GameObjectData
            $::GameDataContainer
                $::DataContainer
            IsEventConnectionTarget 2
            IsPropertyConnectionTarget 3
            IndexInBlueprint 14
    Realm Realm_ClientAndServer
    DefaultValue True
BoolEntityData 9b42d55105ab384497cce4d4f28a71a4
    $::EntityData
        $::GameObjectData
            $::GameDataContainer
                $::DataContainer
            IsEventConnectionTarget 0
            IsPropertyConnectionTarget 3
            IndexInBlueprint 15
    Realm Realm_Client
    DefaultValue True
BoolToEventEntityData ce5b3fb53697fd4b8b81f5573ed93fd5
    $::EntityData
        $::GameObjectData
            $::GameDataContainer
                $::DataContainer
            IsEventConnectionTarget 3
            IsPropertyConnectionTarget 0
            IndexInBlueprint 18
    Realm Realm_Client
    Value False
    InitalEvent False
CameraComponentData e9dcd7f6e16af0093d22aea84c57267d
    $::ComponentData
        $::GameObjectData
            $::GameDataContainer
                $::DataContainer
            IsEventConnectionTarget 3
            IsPropertyConnectionTarget 3
            IndexInBlueprint -1
        Transform::LinearTransform
            right::Vec3
                x 1.0
                y 0.0
                z 0.0
            up::Vec3
                x 0.0
                y 1.0
                z 0.0
            forward::Vec3
                x 0.0
                y 0.0
                z 1.0
            trans::Vec3
                x 0.0
                y 0.999887287617
                z -0.099086523056
        Components *nullArray*
        Excluded False
    Camera 21abb64fa03f9dcf8196534421e0606c
    FieldOfView 45.0
    ForceFieldOfView -1.0
    EnableCameraMesh True
    AlternateView *nullGuid*
    RegularView::RegularCameraViewData
        FLIREnabled False
        InputSuppression::InputSuppressionData
            SuppressVehicleInput::array
                member::ActionSuppressor
                    ActionToSuppress EIAPitch
                    SuppressingValue 0.0
                member::ActionSuppressor
                    ActionToSuppress EIARoll
                    SuppressingValue 0.0
                member::ActionSuppressor
                    ActionToSuppress EIAFire
                    SuppressingValue 0.0
        FieldOfView 60.0
        AllowFieldOfViewScaling False
        Mesh *nullGuid*
        MaskMeshBlueprint *nullGuid*
        LockMeshToRenderView False
        MeshOffset::Vec3
            x 0.0
            y 0.0
            z 0.0
        ScreenExposureAreaScale 1.0
    AlternateViewEnabled True
    FreezeHeight 0.0
    IsFirstPerson True
    SoldierAnimatedCamera::SoldierAnimatedCameraData
        EnableFeature False
        CameraTransitionTime 0.5
    ReceiveImpulsesAsThirdPerson False
    UseCameraTransition False
    CameraTransitionPos::Vec3
        x 0.0
        y 0.0
        z 0.0
    CameraTransitionTime 1.0
    MeshParentComponentNumber 0
    StanceData::StanceCameraData
        ValidStances *nullArray*
        DefaultCameraForStances *nullArray*
    CameraSoundData *nullGuid*
    IgnoreOwnerOrientation False
CameraComponentData 48ceb9762e4130f649eb03d73a1faed5
    $::ComponentData
        $::GameObjectData
            $::GameDataContainer
                $::DataContainer
            IsEventConnectionTarget 3
            IsPropertyConnectionTarget 3
            IndexInBlueprint -1
        Transform::LinearTransform
            right::Vec3
                x 1.0
                y 0.0
                z 0.0
            up::Vec3
                x 0.0
                y 1.0
                z 0.0
            forward::Vec3
                x 0.0
                y 0.0
                z 1.0
            trans::Vec3
                x 0.0
                y -1.90042328835
                z -1.74615991116
        Components *nullArray*
        Excluded False
    Camera ee54fe7efc2d9b465457006b434e06a2
    FieldOfView 45.0
    ForceFieldOfView -1.0
    EnableCameraMesh True
    AlternateView *nullGuid*
    RegularView::RegularCameraViewData
        FLIREnabled False
        InputSuppression::InputSuppressionData
            SuppressVehicleInput *nullArray*
        FieldOfView 60.0
        AllowFieldOfViewScaling False
        Mesh *nullGuid*
        MaskMeshBlueprint *nullGuid*
        LockMeshToRenderView False
        MeshOffset::Vec3
            x 0.0
            y 0.0
            z 0.0
        ScreenExposureAreaScale 1.0
    AlternateViewEnabled True
    FreezeHeight 0.0
    IsFirstPerson False
    SoldierAnimatedCamera::SoldierAnimatedCameraData
        EnableFeature False
        CameraTransitionTime 0.5
    ReceiveImpulsesAsThirdPerson False
    UseCameraTransition False
    CameraTransitionPos::Vec3
        x 0.0
        y 0.0
        z 0.0
    CameraTransitionTime 2.0
    MeshParentComponentNumber 0
    StanceData::StanceCameraData
        ValidStances *nullArray*
        DefaultCameraForStances *nullArray*
    CameraSoundData *nullGuid*
    IgnoreOwnerOrientation False
CameraComponentData bcac74a6e5e3cb3e96b55caf8a2fcdfe
    $::ComponentData
        $::GameObjectData
            $::GameDataContainer
                $::DataContainer
            IsEventConnectionTarget 3
            IsPropertyConnectionTarget 3
            IndexInBlueprint -1
        Transform::LinearTransform
            right::Vec3
                x 1.0
                y 0.0
                z 0.0
            up::Vec3
                x 0.0
                y 1.0
                z 0.0
            forward::Vec3
                x 0.0
                y 0.0
                z 1.0
            trans::Vec3
                x 0.0
                y 1.01049590111
                z 0.0563720464706
        Components *nullArray*
        Excluded False
    Camera c20b6e66beb8d0c0202986604895cd83
    FieldOfView 45.0
    ForceFieldOfView -1.0
    EnableCameraMesh True
    AlternateView 2ea71ef48f6c4319a70377dbac1ecfdf
    RegularView::RegularCameraViewData
        FLIREnabled False
        InputSuppression::InputSuppressionData
            SuppressVehicleInput *nullArray*
        FieldOfView 55.0
        AllowFieldOfViewScaling False
        Mesh vehicles/common/cockpits/helmethud_mesh/194fbf7c3a4cde47b4c61006186c86f9
        MaskMeshBlueprint *nullGuid*
        LockMeshToRenderView True
        MeshOffset::Vec3
            x 0.0
            y 0.0
            z 0.140000000596
        ScreenExposureAreaScale 1.0
    AlternateViewEnabled True
    FreezeHeight 0.0
    IsFirstPerson True
    SoldierAnimatedCamera::SoldierAnimatedCameraData
        EnableFeature False
        CameraTransitionTime 0.5
    ReceiveImpulsesAsThirdPerson False
    UseCameraTransition False
    CameraTransitionPos::Vec3
        x 0.0
        y 0.0
        z 0.0
    CameraTransitionTime 2.0
    MeshParentComponentNumber 0
    StanceData::StanceCameraData
        ValidStances::array
            member 0
            member 1
        DefaultCameraForStances::array
            member 0
            member 1
    CameraSoundData *nullGuid*
    IgnoreOwnerOrientation False
CameraComponentData 3c504f81b516884fbae66892b61d026e
    $::ComponentData
        $::GameObjectData
            $::GameDataContainer
                $::DataContainer
            IsEventConnectionTarget 3
            IsPropertyConnectionTarget 3
            IndexInBlueprint -1
        Transform::LinearTransform
            right::Vec3
                x 1.0
                y 0.0
                z 0.0
            up::Vec3
                x 0.0
                y 1.0
                z 0.0
            forward::Vec3
                x 0.0
                y 0.0
                z 1.0
            trans::Vec3
                x 0.0
                y 0.0
                z 0.0
        Components *nullArray*
        Excluded False
    Camera b3e1760401b8870b85849670827ec88c
    FieldOfView 45.0
    ForceFieldOfView -1.0
    EnableCameraMesh True
    AlternateView 519274e0c991a00f7802efa211220742
    RegularView::RegularCameraViewData
        FLIREnabled False
        InputSuppression::InputSuppressionData
            SuppressVehicleInput *nullArray*
        FieldOfView 55.0
        AllowFieldOfViewScaling False
        Mesh vehicles/common/cockpits/hudholder_mesh/0d0d3399c1eca347911d89dce40eac0c
        MaskMeshBlueprint *nullGuid*
        LockMeshToRenderView True
        MeshOffset::Vec3
            x 0.0
            y 0.0
            z 0.360000014305
        ScreenExposureAreaScale 1.0
    AlternateViewEnabled True
    FreezeHeight 0.0
    IsFirstPerson True
    SoldierAnimatedCamera::SoldierAnimatedCameraData
        EnableFeature False
        CameraTransitionTime 0.5
    ReceiveImpulsesAsThirdPerson False
    UseCameraTransition False
    CameraTransitionPos::Vec3
        x 0.0
        y 0.0
        z 0.0
    CameraTransitionTime 1.0
    MeshParentComponentNumber 0
    StanceData::StanceCameraData
        ValidStances::array
            member 0
            member 1
        DefaultCameraForStances::array
            member 0
            member 1
    CameraSoundData 54a91ab5060f7a95d8780a5b6366dd90
    IgnoreOwnerOrientation False
CameraComponentSoundData 54a91ab5060f7a95d8780a5b6366dd90
    $::DataContainer
    SwitchToAlternateViewSound sound/vehicles/stancesandweaponviews/into_citv_us/242520b5381d2f057d1e709579149348
    SwitchToNormalViewSound sound/vehicles/stancesandweaponviews/into_citv_us/242520b5381d2f057d1e709579149348
ChaseCameraData ee54fe7efc2d9b465457006b434e06a2
    $::TargetCameraData
        $::CameraData
            $::GameObjectData
                $::GameDataContainer
                    $::DataContainer
                IsEventConnectionTarget 3
                IsPropertyConnectionTarget 3
                IndexInBlueprint -1
            OcclusionRayOffset::Vec3
                x 0.0
                y 0.0
                z 0.0
            PreFadeTime 0.0
            FadeTime 0.0
            FadeWaitTime 0.0
            StayFadedWhileStreaming False
            ViewFx *nullGuid*
            NearPlane -1.0
            ShadowViewDistanceScale 1.0
            SoundOcclusion 0.0
            SoundListenerRadius 0.5
            ShakeFactor 1.0
        Hud::HudData
            CrosshairScaleMin 0.0
            CrosshairScaleMax 5.0
            CrosshairOpacityMin 1.0
            CrosshairOpacityMax 0.10000000149
            CrosshairOpacityModifier 1.0
            CrosshairTypeId *nullString*
            WeaponClass *nullString*
            ShowMinimap True
            HideAmmo False
            LowAmmoWarning 0.300000011921
            ReloadPrompt 0.300000011921
            InfiniteAmmo False
            HideCrosshairWhenAimOnFriend True
            UseRenderTarget False
            RenderTargetIndex 0
            HudPropertyList *nullGuid*
            UseRangeMeter False
            UseAimWarning False
            UsePredictedSight False
            UseWeaponOrientations False
            UseVelocityVectorMarker False
            UseLockingController False
            UseThrust False
            UseGForce False
            UseSkidSlip False
            UseClimbRate False
            SeaLevelAltFreq 0.0
            CameraShakeModifier 1.0
        UIParts *nullArray*
    TargetOffset::Vec3
        x 2.79999995232
        y 3.0
        z -7.0
    TargetRotationOffset 0.0
    KeepTargetPitch True
    ToWantedPositionScale::Vec3
        x 100.0
        y 200.0
        z 100.0
    MaxViewRotationAngleDeg 0.0
    WantedAngleDeg 5.0
    WantedDistance 10.0
    MaxDistance 10.0
    SnapDistance 20.0
    ForceFieldRadius 2.0
    CollisionRadius 0.10000000149
    ForceFieldForceScale 80.0
    AwayFromTargetForceScale 100.0
    VelocityDrag 25.0
    MaxVelocity 100.0
    PillMinimumCollisionRadius 0.5
    PillMaximumCollisionRadius 1.5
    PillMinimumCollisionLength 0.300000011921
    PillExpandSizeSpeedAcceleration 50.0
    LookDistanceScale 0.0
    LookDistanceInFrontOfTarget 80.0
    ShouldRollWithTarget True
    InheritTargetVelocity True
    UpdateRate 200
    HasCollision True
ChassisComponentData 4006e41c00628d936dc501d093127b93
    $::PartComponentData
        $::ComponentData
            $::GameObjectData
                $::GameDataContainer
                    $::DataContainer
                IsEventConnectionTarget 3
                IsPropertyConnectionTarget 3
                IndexInBlueprint 1
            Transform::LinearTransform
                right::Vec3
                    x 1.0
                    y 0.0
                    z 0.0
                up::Vec3
                    x 0.0
                    y 1.0
                    z 0.0
                forward::Vec3
                    x 0.0
                    y 0.0
                    z 1.0
                trans::Vec3
                    x 0.0
                    y 0.0
                    z 0.0
            Components::array
                member e2c1cc2a848306c380ff3e8a6354c1d2
                member d5545338268ab09b2a30520783ff730f
                member 0a451c3960d3a74492192366e69a2f81
                member a55c9aec7115233a1bb36555b83de395
                member da9c998ad023e39c4064affca2bcb3e0
                member 01c3c9a95e933170912b4e2349273b33
                member 02a9b6ff8fa3e1073e96b87fa8529b12
                member 2e620ceea1a82a585c71c0b3f6d769c5
                member e4c9d1eb6695d4fe495c11a9cf5c2322
                member 5abbe8053c15745f9210b877680273ef
                member a368129203b83ec0fb7ee3c672d933e2
                member 9b7563b384c9fe6e22bae0bb9d980576
                member 8bbe19fe05686137f478a46db7c0fba9
                member 4c875d83abaf53c46bcb7c3f73a63ab4
                member e7ece3064d2aeee77bba67366a81f6ec
                member f7c0ee376298215bdcf5974117ddb4ab
                member 026b136507a7b85550150f4747327c04
                member fceedd7f9a74f76788524b7b30fbecb2
                member 439e96c5dd81372705ad61726b82b036
                member 05d46b9fb55d12bd98b6685d04cf563d
                member 21100e39fbcb43a3e1b5134dd2206a32
            Excluded False
        HealthStates::array
            member 66d53e6615e49af7e1d6490267a8a8df
            member c33b2f23e4466629a0bd9dc8d89345d1
        PartLinks *nullArray*
        IsSupported False
        IsFragile False
        IsNetworkable True
        IsWindow False
        AnimatePhysics False
    VehicleConfig 859e6232ff8890a501783ce193c0049c
    GearboxConfig ad904d946ed1ebc89c8f6565f27c9f13
    AlwaysFullThrottle False
    WaterEffects *nullArray*
    WaterStreakEffects *nullArray*
    TriggerGroundEffectImpulse 0.0
    LandingGearLogic *nullGuid*
    ForceLandingGearsRetract False
    AllowNegativeThrottle True
ChildBarrelComponentData 09e5ae8219cc07831037c13366e8b7e3
    $::ChildComponentData
        $::PartComponentData
            $::ComponentData
                $::GameObjectData
                    $::GameDataContainer
                        $::DataContainer
                    IsEventConnectionTarget 3
                    IsPropertyConnectionTarget 3
                    IndexInBlueprint -1
                Transform::LinearTransform
                    right::Vec3
                        x 1.0
                        y 0.0
                        z 0.0
                    up::Vec3
                        x 0.0
                        y 1.0
                        z 6.00718585986e-10
                    forward::Vec3
                        x 0.0
                        y -6.00718585986e-10
                        z 1.0
                    trans::Vec3
                        x -1.40693485737
                        y 0.0370020866394
                        z 0.858074128628
                Components *nullArray*
                Excluded False
            HealthStates *nullArray*
            PartLinks *nullArray*
            IsSupported False
            IsFragile False
            IsNetworkable True
            IsWindow False
            AnimatePhysics False
        SoundEffect *nullGuid*
        MovingBody *nullGuid*
        HealthZone::VehicleHealthZoneData
            MaxHealth 0.0
            MaxShieldHealth 0.0
            UseDamageAngleCalculation False
            MinDamageAngle 0.0
            DamageAngleMultiplier 1.0
        SoundEffectStartRpm 0.10000000149
        SoundEffectStopRpm 0.10000000149
        AlignmentSettings *nullGuid*
        WorldSpacePositionLock False
        EnableAlignToCamera False
        AlignTransform::LinearTransform
            right::Vec3
                x 1.0
                y 0.0
                z 0.0
            up::Vec3
                x 0.0
                y 1.0
                z 0.0
            forward::Vec3
                x 0.0
                y 0.0
                z 1.0
            trans::Vec3
                x 0.0
                y 0.0
                z 0.0
ChildBarrelComponentData 5ab985d091a0588762b9c36b2f571bdb
    $::ChildComponentData
        $::PartComponentData
            $::ComponentData
                $::GameObjectData
                    $::GameDataContainer
                        $::DataContainer
                    IsEventConnectionTarget 3
                    IsPropertyConnectionTarget 3
                    IndexInBlueprint -1
                Transform::LinearTransform
                    right::Vec3
                        x 1.0
                        y 0.0
                        z 0.0
                    up::Vec3
                        x 0.0
                        y 1.0
                        z 0.0
                    forward::Vec3
                        x 0.0
                        y 0.0
                        z 1.0
                    trans::Vec3
                        x 1.40693485737
                        y 0.0370020866394
                        z 0.858074128628
                Components *nullArray*
                Excluded False
            HealthStates *nullArray*
            PartLinks *nullArray*
            IsSupported False
            IsFragile False
            IsNetworkable True
            IsWindow False
            AnimatePhysics False
        SoundEffect *nullGuid*
        MovingBody *nullGuid*
        HealthZone::VehicleHealthZoneData
            MaxHealth 0.0
            MaxShieldHealth 0.0
            UseDamageAngleCalculation False
            MinDamageAngle 0.0
            DamageAngleMultiplier 1.0
        SoundEffectStartRpm 0.10000000149
        SoundEffectStopRpm 0.10000000149
        AlignmentSettings *nullGuid*
        WorldSpacePositionLock False
        EnableAlignToCamera False
        AlignTransform::LinearTransform
            right::Vec3
                x 1.0
                y 0.0
                z 0.0
            up::Vec3
                x 0.0
                y 1.0
                z 0.0
            forward::Vec3
                x 0.0
                y 0.0
                z 1.0
            trans::Vec3
                x 0.0
                y 0.0
                z 0.0
ChildComponentData 4fbbab6be22d480a5fe00e66c93b4926
    $::PartComponentData
        $::ComponentData
            $::GameObjectData
                $::GameDataContainer
                    $::DataContainer
                IsEventConnectionTarget 3
                IsPropertyConnectionTarget 3
                IndexInBlueprint -1
            Transform::LinearTransform
                right::Vec3
                    x 1.0
                    y 0.0
                    z 0.0
                up::Vec3
                    x 0.0
                    y 1.0
                    z 0.0
                forward::Vec3
                    x 0.0
                    y 0.0
                    z 1.0
                trans::Vec3
                    x -0.000257737381617
                    y -1.42735683918
                    z 3.21014308929
            Components::array
                member 702e82158f4e83aa2745f65e44a0fc06
            Excluded False
        HealthStates::array
            member e3b7f94483bd9498cfbed505bc84425c
        PartLinks *nullArray*
        IsSupported False
        IsFragile False
        IsNetworkable True
        IsWindow False
        AnimatePhysics False
    SoundEffect *nullGuid*
    MovingBody 64a2305ec62fd776d095d4c572b62624
    HealthZone::VehicleHealthZoneData
        MaxHealth 0.0
        MaxShieldHealth 0.0
        UseDamageAngleCalculation False
        MinDamageAngle 0.0
        DamageAngleMultiplier 1.0
    SoundEffectStartRpm 0.10000000149
    SoundEffectStopRpm 0.10000000149
    AlignmentSettings *nullGuid*
    WorldSpacePositionLock False
    EnableAlignToCamera False
    AlignTransform::LinearTransform
        right::Vec3
            x 1.0
            y 0.0
            z 0.0
        up::Vec3
            x 0.0
            y 1.0
            z 0.0
        forward::Vec3
            x 0.0
            y 0.0
            z 1.0
        trans::Vec3
            x 0.0
            y 0.0
            z 0.0
ChildComponentData 702e82158f4e83aa2745f65e44a0fc06
    $::PartComponentData
        $::ComponentData
            $::GameObjectData
                $::GameDataContainer
                    $::DataContainer
                IsEventConnectionTarget 3
                IsPropertyConnectionTarget 3
                IndexInBlueprint -1
            Transform::LinearTransform
                right::Vec3
                    x 0.99999576807
                    y -0.00283468910493
                    z -0.000669152708724
                up::Vec3
                    x 0.00283361691982
                    y 0.999994695187
                    z -0.00159791461192
                forward::Vec3
                    x 0.000673678761814
                    y 0.00159601168707
                    z 0.999998509884
                trans::Vec3
                    x 0.0
                    y 0.0
                    z 0.0
            Components::array
                member 08cf86968d4f2c0be4f529ad51e15035
            Excluded False
        HealthStates::array
            member 92ab9736fad29f3aeed945175eedea84
        PartLinks *nullArray*
        IsSupported False
        IsFragile False
        IsNetworkable True
        IsWindow False
        AnimatePhysics False