AIWeaponData ed0b438d0139aa0f22b0afa87e418cba
    $::GameAIWeaponData
        $::Asset
            $::DataContainer
            Name *nullString*
    Strengths::Strengths
        Infantry 0.0
        LightArmour 0.0
        HeavyArmour 0.0
        Helicopter 0.0
    Indirect False
    IsAiAllowed True
    UseFromCover False
    DisableWeaponSway False
    MinRange 0.0
    MaxRange 0.0
    OptimalRangePercentage 0.0
    ReloadBehavior RbInCover
    MinExtraReloadTime 0.0
    MaxExtraReloadTime 0.0
    AllowedAgainstImmortals True
    CanSuppress True
    CanAltAttack False
    IsStandStill False
    IsMelee False
    IsBlindFireAllowed True
    WaitTimeBeforeFire 0.0
    BurstLimitNear::BurstLimit
        Min 0
        Max 0
    BurstLimitFar::BurstLimit
        Min 0
        Max 0
    MinBurstCoolDownTime 1.0
    MaxBurstCoolDownTime 2.0
    LostTargetBurstCoolDownModifier 2.0
    AimTransitionFireDelay 0.34999999404
    AimAngularVelocity 0.0
    AngleToTargetSnap 0.0
    AimWhileReloading True
    UseZoom False
    AimOrigin AoDefault
    GravityModifier 1.0
    AimHighIndirectPath False
    MinimumAccuracyBeforeFiring 7.0
    AdditionalMinimumAccuracyAtMinRange 0.0
    SweepFirstAttack False
    SweepType SstTargetLost
    SweepDistance 0.0
    SweepTime 0.5
    InnerInaccurateDistance 5.0
    OuterInaccurateDistance 10.0
    InaccuracyFollowsTarget True
    UseInaccuracyAtCloseRange False
    StartAccuracyPercentage 0.5
    FinalAccuracyPercentage 0.5
AeroDynamicPhysicsData 3b1be3dc71562449a596d5536e9fc5b7
    $::DataContainer
    BodyDrag::Vec3
        x 0.20000000298
        y 0.25
        z 0.10000000149
    BodyDragOffsetYZ::Vec3
        x 0.0
        y 0.0
        z 0.0
    BodyDragOffsetXZ::Vec3
        x 0.0
        y 0.0
        z 0.0
    BodyDragOffsetXY::Vec3
        x 0.0
        y 0.0
        z 0.0
AlternateCameraViewData a1a165295affed4486dc88f7e23e652e
    $::DataContainer
    FieldOfView 30.0
    AllowFieldOfViewScaling False
    FovTransitionTime 0.0
    WorldSpaceLockEfficiency 0.0
    Mesh vehicles/common/cockpits/hudholder_mesh/0d0d3399c1eca347911d89dce40eac0c
    MaskMeshBlueprint *nullGuid*
    LockMeshToRenderView False
    MeshOffset::Vec3
        x 0.0
        y 0.0
        z 0.544000029564
    Hud::HudData
        CrosshairScaleMin 0.0
        CrosshairScaleMax 5.0
        CrosshairOpacityMin 1.0
        CrosshairOpacityMax 0.10000000149
        CrosshairOpacityModifier 1.0
        CrosshairTypeId *nullString*
        WeaponClass *nullString*
        ShowMinimap True
        HideAmmo False
        LowAmmoWarning 0.300000011921
        ReloadPrompt 0.300000011921
        InfiniteAmmo False
        HideCrosshairWhenAimOnFriend True
        UseRenderTarget False
        RenderTargetIndex 0
        HudPropertyList *nullGuid*
        UseRangeMeter False
        UseAimWarning False
        UsePredictedSight False
        UseWeaponOrientations False
        UseVelocityVectorMarker False
        UseLockingController False
        UseThrust False
        UseGForce False
        UseSkidSlip False
        UseClimbRate False
        SeaLevelAltFreq 0.0
        CameraShakeModifier 1.0
    FadeToBlack True
    FadeInDuration 0.0299999993294
    FadeOutDuration 0.10000000149
    BlackDuration 0.0299999993294
    InputSuppression::InputSuppressionData
        SuppressVehicleInput::array
            member::ActionSuppressor
                ActionToSuppress EIAYaw
                SuppressingValue 0.75
            member::ActionSuppressor
                ActionToSuppress EIAPitch
                SuppressingValue 0.649999976158
    ToggleViewChange True
    UseProfileOptionForToggleViewChange False
    FLIREnabled False
    ScreenExposureAreaScale 1.0
CameraComponentData 5b3944ca47962641b455f580df44bd7a
    $::ComponentData
        $::GameObjectData
            $::GameDataContainer
                $::DataContainer
            IsEventConnectionTarget 3
            IsPropertyConnectionTarget 3
            IndexInBlueprint -1
        Transform::LinearTransform
            right::Vec3
                x 1.0
                y 0.0
                z 0.0
            up::Vec3
                x 0.0
                y 1.0
                z 0.0
            forward::Vec3
                x 0.0
                y 0.0
                z 1.0
            trans::Vec3
                x 0.0833048522472
                y -0.0439130365849
                z 0.10207182169
        Components *nullArray*
        Excluded False
    Camera 688e9d81a90d5d47b13013c175d5c2b9
    FieldOfView 45.0
    ForceFieldOfView -1.0
    EnableCameraMesh True
    AlternateView a1a165295affed4486dc88f7e23e652e
    RegularView::RegularCameraViewData
        FLIREnabled False
        InputSuppression::InputSuppressionData
            SuppressVehicleInput *nullArray*
        FieldOfView 55.0
        AllowFieldOfViewScaling False
        Mesh vehicles/common/cockpits/hudholder_mesh/0d0d3399c1eca347911d89dce40eac0c
        MaskMeshBlueprint *nullGuid*
        LockMeshToRenderView False
        MeshOffset::Vec3
            x 0.0
            y 0.0
            z 0.280000001192
        ScreenExposureAreaScale 1.0
    AlternateViewEnabled True
    FreezeHeight 0.0
    IsFirstPerson True
    SoldierAnimatedCamera::SoldierAnimatedCameraData
        EnableFeature False
        CameraTransitionTime 0.5
    ReceiveImpulsesAsThirdPerson False
    UseCameraTransition False
    CameraTransitionPos::Vec3
        x 0.0
        y 0.0
        z 0.0
    CameraTransitionTime 2.0
    MeshParentComponentNumber 0
    StanceData::StanceCameraData
        ValidStances *nullArray*
        DefaultCameraForStances *nullArray*
    CameraSoundData ffeca9bfe3ef1643b87b2bef2c941bed
    IgnoreOwnerOrientation False
CameraComponentSoundData ffeca9bfe3ef1643b87b2bef2c941bed
    $::DataContainer
    SwitchToAlternateViewSound sound/vehicles/stancesandweaponviews/jet_weapon_system_switch_03/7e8b4aa0b6a2364ba33dd18fc7a56791
    SwitchToNormalViewSound sound/vehicles/stancesandweaponviews/jet_weapon_system_switch_03/7e8b4aa0b6a2364ba33dd18fc7a56791
ChassisComponentData a58e75533743bf1509872670ace8cf01
    $::PartComponentData
        $::ComponentData
            $::GameObjectData
                $::GameDataContainer
                    $::DataContainer
                IsEventConnectionTarget 1
                IsPropertyConnectionTarget 3
                IndexInBlueprint 1
            Transform::LinearTransform
                right::Vec3
                    x 1.0
                    y 0.0
                    z 0.0
                up::Vec3
                    x 0.0
                    y 1.0
                    z 0.0
                forward::Vec3
                    x 0.0
                    y 0.0
                    z 1.0
                trans::Vec3
                    x 0.0
                    y 0.0
                    z 0.0
            Components::array
                member 3bb038fce662a844a7b01b87832e8158
                member 20142c784df1e2489c96eb20475653a3
                member a496b2e4eb7a3e459e71afc8f598a625
                member 0cb68cb6de18c04583dd242607d557ca
                member cb07972bf2b68fd0d76ac8f461051765
                member 58fc152510831cadd4d25a12b643e958
                member ab9bf67636c959a5efcda66896ed1bda
                member b1e43fb89ee1f44abf32034b16e4f3f7
                member 8c3f4f2edb6c154b993aa3c68684aea2
                member ae95d19713969d4faf02391d9f30e5f8
                member 40a701b8934e7543b83ce416fe195218
                member 4e44603e127f7246932b8068616c724f
                member ad45813a74999a4f916890674329a19d
                member 6ba64d15cb2694458d77be57cfdbb9b4
                member da9ee168ecdb98469b5ec52c61fee7de
                member b9153a9dd0b06546b5af70f12a798c2d
                member 3c6ee0df3534b442ba49475ccb7795b9
            Excluded False
        HealthStates::array
            member 6892ded28bbad0019eb72a368b297e5d
        PartLinks *nullArray*
        IsSupported False
        IsFragile False
        IsNetworkable True
        IsWindow False
        AnimatePhysics False
    VehicleConfig 28160936381b234ba865bfe7551cc363
    GearboxConfig 6e1f3f4465309743862314723886e5c0
    AlwaysFullThrottle False
    WaterEffects *nullArray*
    WaterStreakEffects *nullArray*
    TriggerGroundEffectImpulse 0.0
    LandingGearLogic *nullGuid*
    ForceLandingGearsRetract False
    AllowNegativeThrottle True
ChildComponentData cb07972bf2b68fd0d76ac8f461051765
    $::PartComponentData
        $::ComponentData
            $::GameObjectData
                $::GameDataContainer
                    $::DataContainer
                IsEventConnectionTarget 3
                IsPropertyConnectionTarget 3
                IndexInBlueprint -1
            Transform::LinearTransform
                right::Vec3
                    x 1.0
                    y 0.0
                    z 0.0
                up::Vec3
                    x 0.0
                    y 1.0
                    z 0.0
                forward::Vec3
                    x 0.0
                    y 0.0
                    z 1.0
                trans::Vec3
                    x 0.0
                    y 0.377857983112
                    z 0.0
            Components::array
                member 36d46ddff162f37d5a5d7852d2beac16
                member 28284614d5b9912c82843a40273fb776
            Excluded False
        HealthStates::array
            member 1032ec8255adc823b7a70297cdbe842b
        PartLinks *nullArray*
        IsSupported False
        IsFragile False
        IsNetworkable True
        IsWindow False
        AnimatePhysics False
    SoundEffect *nullGuid*
    MovingBody 5961be27a48a384e9de84d1f9ee31c28
    HealthZone::VehicleHealthZoneData
        MaxHealth 0.0
        MaxShieldHealth 0.0
        UseDamageAngleCalculation False
        MinDamageAngle 0.0
        DamageAngleMultiplier 1.0
    SoundEffectStartRpm 0.10000000149
    SoundEffectStopRpm 0.10000000149
    AlignmentSettings *nullGuid*
    WorldSpacePositionLock False
    EnableAlignToCamera False
    AlignTransform::LinearTransform
        right::Vec3
            x 1.0
            y 0.0
            z 0.0
        up::Vec3
            x 0.0
            y 1.0
            z 0.0
        forward::Vec3
            x 0.0
            y 0.0
            z 1.0
        trans::Vec3
            x 0.0
            y 0.0
            z 0.0
ChildRotationBodyData 5961be27a48a384e9de84d1f9ee31c28
    $::RotationBodyData
        $::MovingBodyData
            $::DataContainer
            Mass 100.0
            Inertia 100.0
        AngularMomentumMultiplier 5.0
        AngularMomentumThreshold 0.0
        AngularMomentumDamping 0.5
        AngularMomentumDampingAcc 0.20000000298
        AngularMomentumDampingDeacc 0.20000000298
        UsePostSatisfyConstraints True
        AngularConstraintMin 0.0
        AngularConstraintMax 55.0
        RotationAxis 0
        ExtendedConstraints *nullGuid*
        UseAngularMomentumThreshold False
        UseAngularMomentumDamping True
        UseAngularConstraint True
    ForceModifier 100000.0
    ResetForceModifier 0.0
    ResetForceInputThreshold 0.0
    UseLinearInput True
    RotationInput EIAPitch
    WorldSpaceLockEfficiency 0.0
CompareFloatEntityData 906899216e8b1c459e00918191d3d65f
    $::EntityData
        $::GameObjectData
            $::GameDataContainer
                $::DataContainer
            IsEventConnectionTarget 0
            IsPropertyConnectionTarget 0
            IndexInBlueprint 7
    Realm Realm_Client
    A 0.0
    B 0.300000011921
    TriggerOnPropertyChange True
    TriggerOnStart True
CompareFloatEntityData ea175ab866c1ed4bbaee92bdc9fe7c86
    $::EntityData
        $::GameObjectData
            $::GameDataContainer
                $::DataContainer
            IsEventConnectionTarget 0
            IsPropertyConnectionTarget 0
            IndexInBlueprint 14
    Realm Realm_Client
    A 0.0
    B 0.300000011921
    TriggerOnPropertyChange True
    TriggerOnStart True
DelayEntityData ee0efb722cecc24c970f6397555b3a41
    $::EntityData
        $::GameObjectData
            $::GameDataContainer
                $::DataContainer
            IsEventConnectionTarget 0
            IsPropertyConnectionTarget 3
            IndexInBlueprint 6
    Delay 2.79999995232
    Realm Realm_Client
    AutoStart False
    RunOnce False
    RemoveDuplicateEvents True
DelayEntityData 906dee949bd7c648a2142efaa8a0f8e7
    $::EntityData
        $::GameObjectData
            $::GameDataContainer
                $::DataContainer
            IsEventConnectionTarget 0
            IsPropertyConnectionTarget 3
            IndexInBlueprint 9
    Delay 3.0
    Realm Realm_Client
    AutoStart False
    RunOnce False
    RemoveDuplicateEvents True
DelayEntityData e232133c1dacf44d807532755cebd900
    $::EntityData
        $::GameObjectData
            $::GameDataContainer
                $::DataContainer
            IsEventConnectionTarget 0
            IsPropertyConnectionTarget 3
            IndexInBlueprint 13
    Delay 5.80000019073
    Realm Realm_Client
    AutoStart False
    RunOnce False
    RemoveDuplicateEvents True
DelayEntityData cc5d8d40445eb346b617a8d7337682ff
    $::EntityData
        $::GameObjectData
            $::GameDataContainer
                $::DataContainer
            IsEventConnectionTarget 0
            IsPropertyConnectionTarget 3
            IndexInBlueprint 16
    Delay 6.0
    Realm Realm_Client
    AutoStart False
    RunOnce False
    RemoveDuplicateEvents True
EffectComponentData 20142c784df1e2489c96eb20475653a3
    $::ComponentData
        $::GameObjectData
            $::GameDataContainer
                $::DataContainer
            IsEventConnectionTarget 0
            IsPropertyConnectionTarget 3
            IndexInBlueprint -1
        Transform::LinearTransform
            right::Vec3
                x 1.0
                y 0.0
                z 0.0
            up::Vec3
                x 0.0
                y 1.0
                z 0.0
            forward::Vec3
                x 0.0
                y 0.0
                z 1.0
            trans::Vec3
                x 0.0
                y 0.0
                z 0.0
        Components *nullArray*
        Excluded False
    Effect sound/weapons/handheld/tugs/tugs_object_sfx/2a20f2eb1697812aea34464432189cd0
    AutoStart False
    SnapToWaterSurface False
    EmitterParameter1 0.0
    EmitterParameter2 0.0
    EmitterParameter3 0.0
EngineComponentData b9153a9dd0b06546b5af70f12a798c2d
    $::ComponentData
        $::GameObjectData
            $::GameDataContainer
                $::DataContainer
            IsEventConnectionTarget 3
            IsPropertyConnectionTarget 2
            IndexInBlueprint -1
        Transform::LinearTransform
            right::Vec3
                x 1.0
                y 0.0
                z 0.0
            up::Vec3
                x 0.0
                y 1.0
                z 0.0
            forward::Vec3
                x 0.0
                y 0.0
                z 1.0
            trans::Vec3
                x 0.0
                y 0.0
                z 0.0
        Components::array
            member c6d228ca57a3924eb82e8bd061fef0d4
        Excluded False
    Config 7817c9901eee034da19e6d8f07552052
    SoundEffect sound/vehicles/air/mav/mav/8234ccd7d87fc04f86e251d49a005e90
    SurfaceSoundEffect *nullGuid*
    UseFirstPersonSounds False
    OutputIsEngineInWater False
EngineComponentData 3c6ee0df3534b442ba49475ccb7795b9
    $::ComponentData
        $::GameObjectData
            $::GameDataContainer
                $::DataContainer
            IsEventConnectionTarget 3
            IsPropertyConnectionTarget 3
            IndexInBlueprint -1
        Transform::LinearTransform
            right::Vec3
                x 1.0
                y 0.0
                z 0.0
            up::Vec3
                x 0.0
                y 1.0
                z 0.0
            forward::Vec3
                x 0.0
                y 0.0
                z 1.0
            trans::Vec3
                x 0.0
                y 0.0
                z 0.0
        Components *nullArray*
        Excluded False
    Config 858792a9097b36429bc4ef9ab88c3bf5
    SoundEffect *nullGuid*
    SurfaceSoundEffect *nullGuid*
    UseFirstPersonSounds False
    OutputIsEngineInWater False
EntityVoiceOverInfo b6dbda2a1c5ec34a8dee4d754480ec09
    $::DataContainer
    VoiceOverType sound/vo/vo_system/d96f3de2d0ae7e4398ab435761060519
    Labels::array
        member sound/vo/vo_system/a062a64897dc4e4eb0bff53c37c63fad
EventGateEntityData 5837f95f62695a4b98b16adce2cc804b
    $::EntityData
        $::GameObjectData
            $::GameDataContainer
                $::DataContainer
            IsEventConnectionTarget 0
            IsPropertyConnectionTarget 3
            IndexInBlueprint 10
    Default True
    Realm Realm_Client
EventGateEntityData 1a01d9d2affd4f4c9e16e186c1ebb00f
    $::EntityData
        $::GameObjectData
            $::GameDataContainer
                $::DataContainer
            IsEventConnectionTarget 0
            IsPropertyConnectionTarget 3
            IndexInBlueprint 17
    Default True
    Realm Realm_Client
GearboxConfigData 6e1f3f4465309743862314723886e5c0
    $::DataContainer
    ForwardGearRatios::array
        member 6.5
        member 4.0
        member 3.0
        member 2.5
        member 2.0
    ForwardGearSpeeds::array
        member 45.0
        member 70.0
        member 90.0
        member 110.0
        member 130.0
    ReverseGearRatios::array
        member -5.03999996185
    ReverseGearSpeeds::array
        member 50.0
    GearboxType 0
    GearboxMode 0
    GearChangeTime 0.0625
    GearDownSpeedFactor 0.800000011921
    OppositeDirGearChangeMaxSpeed 50.0
    OppositeDirGearChangeTime 0.125
    ClutchSpeedFactor 10.0
    TransmissionEfficiency 1.0
    UseAutoClutch True
    UseClassicGearBoxAutoClutch False
    UseNeutralGear True
    LimitBackwardThrottle False
    BackwardThrottleLimit 50.0
GeometryTriggerEntityData 279035ed4b816243b42ada87b33dccf0
    $::AreaTriggerEntityData
        $::TriggerEntityData
            $::GameEntityData
                $::SpatialEntityData
                    $::EntityData
                        $::GameObjectData
                            $::GameDataContainer
                                $::DataContainer
                            IsEventConnectionTarget 3
                            IsPropertyConnectionTarget 2
                            IndexInBlueprint 20
                    Transform::LinearTransform
                        right::Vec3
                            x 1.0
                            y 0.0
                            z 0.0
                        up::Vec3
                            x 0.0
                            y 1.0
                            z 0.0
                        forward::Vec3
                            x 0.0
                            y 0.0
                            z 1.0
                        trans::Vec3
                            x 0.0
                            y 0.0
                            z 0.0
                Enabled True
                Components *nullArray*
                RuntimeComponentCount 0
            Delay 0.0
            RunOnce False
        GeometryTransform::LinearTransform
            right::Vec3
                x 1.0
                y 0.0
                z 0.0
            up::Vec3
                x 0.0
                y 1.0
                z 0.0
            forward::Vec3
                x 0.0
                y 0.0
                z 1.0
            trans::Vec3
                x 0.0
                y 0.0
                z 0.0
        Include ATPlayers
        UseCharacterEntity True
        Radius 1.0
        InsideAreaEventRepeatTime 0.40000000596
        OneInsideAreaEventPerSoldier False
        TriggerOnlyOnLeave False
        ResetOnEnable False
        TriggerOnLeaveOnDeath True
        TriggerOnLeaveOnDisable False
HavokAsset 202bfa0609fe1e093f89af0dd05c106b
    $::Asset
        $::DataContainer
        Name Weapons/Gadgets/MAV/MAV_Physics_0_Win32
    Scale 1.0
    ExternalAssets *nullArray*
HealthStateData 6892ded28bbad0019eb72a368b297e5d
    $::DataContainer
    Objects *nullArray*
    LoosePartPhysics *nullArray*
    SpawnedBangerBlueprint *nullGuid*
    CopyDamageToBanger True
    SpawnedBangerImpulseParams *nullGuid*
    PhysicsEnabled True
    Health 100.0
    PartIndex 1
    CanSupportOtherParts True
HealthStateData 59f97ec673c7ae9929aab760fd46d3d7
    $::DataContainer
    Objects *nullArray*
    LoosePartPhysics *nullArray*
    SpawnedBangerBlueprint *nullGuid*
    CopyDamageToBanger True
    SpawnedBangerImpulseParams *nullGuid*
    PhysicsEnabled True
    Health 100.0
    PartIndex 0
    CanSupportOtherParts True
HealthStateData dee8cac8fb672e0ef06753bb3542409d
    $::DataContainer
    Objects *nullArray*
    LoosePartPhysics *nullArray*
    SpawnedBangerBlueprint *nullGuid*
    CopyDamageToBanger True
    SpawnedBangerImpulseParams *nullGuid*
    PhysicsEnabled True
    Health 100.0
    PartIndex 3
    CanSupportOtherParts True
HealthStateData 1032ec8255adc823b7a70297cdbe842b
    $::DataContainer
    Objects *nullArray*
    LoosePartPhysics *nullArray*
    SpawnedBangerBlueprint *nullGuid*
    CopyDamageToBanger True
    SpawnedBangerImpulseParams *nullGuid*
    PhysicsEnabled True
    Health 100.0
    PartIndex 4
    CanSupportOtherParts True
HealthStateData a29e0a5afcb4c31308954b033f640e2e
    $::DataContainer
    Objects *nullArray*
    LoosePartPhysics *nullArray*
    SpawnedBangerBlueprint *nullGuid*
    CopyDamageToBanger True
    SpawnedBangerImpulseParams *nullGuid*
    PhysicsEnabled True
    Health 100.0
    PartIndex 5
    CanSupportOtherParts True
HealthStateData 4bd1889c0124d6621ca173d5ad374ee8
    $::DataContainer
    Objects *nullArray*
    LoosePartPhysics *nullArray*
    SpawnedBangerBlueprint *nullGuid*
    CopyDamageToBanger True
    SpawnedBangerImpulseParams *nullGuid*
    PhysicsEnabled True
    Health 100.0
    PartIndex 6
    CanSupportOtherParts True
HealthStateData ce9fef6827f4b544985b9b0a91d0bfcc
    $::DataContainer
    Objects *nullArray*
    LoosePartPhysics *nullArray*
    SpawnedBangerBlueprint *nullGuid*
    CopyDamageToBanger True
    SpawnedBangerImpulseParams *nullGuid*
    PhysicsEnabled True
    Health 0.0
    PartIndex 7
    CanSupportOtherParts False
HealthStateData b43fc11f91ec8949a14c7954f6ac4c73
    $::DataContainer
    Objects *nullArray*
    LoosePartPhysics *nullArray*
    SpawnedBangerBlueprint *nullGuid*
    CopyDamageToBanger True
    SpawnedBangerImpulseParams *nullGuid*
    PhysicsEnabled True
    Health 0.0
    PartIndex 8
    CanSupportOtherParts False
HealthStateData 514bb02138d90e4498f9d8a94184dffb
    $::DataContainer
    Objects *nullArray*
    LoosePartPhysics *nullArray*
    SpawnedBangerBlueprint *nullGuid*
    CopyDamageToBanger True
    SpawnedBangerImpulseParams *nullGuid*
    PhysicsEnabled True
    Health 0.0
    PartIndex 9
    CanSupportOtherParts False
HealthStateData 6e06b17604094546893c1810b3fb9b8f
    $::DataContainer
    Objects *nullArray*
    LoosePartPhysics *nullArray*
    SpawnedBangerBlueprint *nullGuid*
    CopyDamageToBanger True
    SpawnedBangerImpulseParams *nullGuid*
    PhysicsEnabled True
    Health 0.0
    PartIndex 10
    CanSupportOtherParts False
InputCurveData baaecef1ac551f46b70115d7ded785cb
    $::DataContainer
    AffectedInputs::array
        member *nullEnum*
    InputModifierCurve::array
        member::Vec2
            x 0.0
            y 0.0
        member::Vec2
            x 1.0
            y 0.40000000596
    HandleMultipleInputsAsSquare False
LocatorComponentData 3bb038fce662a844a7b01b87832e8158
    $::ComponentData
        $::GameObjectData
            $::GameDataContainer
                $::DataContainer
            IsEventConnectionTarget 3
            IsPropertyConnectionTarget 3
            IndexInBlueprint -1
        Transform::LinearTransform
            right::Vec3
                x 1.0
                y 0.0
                z 0.0
            up::Vec3
                x 0.0
                y 1.0
                z 0.0
            forward::Vec3
                x 0.0
                y 0.0
                z 1.0
            trans::Vec3
                x 0.0
                y 1.0
                z 0.0
        Components *nullArray*
        Excluded False
    Realm Realm_ClientAndServer
LockingControllerData c4524b9d56afeb458597e9930dfb77f2
    $::DataContainer
    ZoomLevelLock::array
        member::ZoomLevelLockData
            OutlineTaggedDistance 0.0
            LockType LockOnRadar
    LockTime 0.600000023842
    ReleaseTime 0.20000000298
    ReleaseOnNewTargetTime 0.5
    SampleRate 0.0599999986589
    HoldStillThreshold 10.0
    RayLength 400.0
    LockOnVisibleTargetsOnly True
    PositionOnly False
    LockOnWorldSpacePos False
    AcceptanceAngle 3.0
    AngleConstant 1.0
    DistanceConstant 1.0
    Sensitivity 40.0
    MinimumLockTime 0.0
    LockOnEmptyVehicles True
    IgnoreHeigthLockDistance False
LockingWeaponData 3586fba0a8f61943918afcccc19299a9
    $::WeaponData
        $::ToolData
            $::DataContainer
            IsAlwaysActive False
        ShowLaserPaintedVehicles False
    LockingController c4524b9d56afeb458597e9930dfb77f2
    SecondaryLockingController *nullGuid*
    IsHoming True
    IsGuided False
    IsGuidedWhenZoomed False
    FireOnlyWhenLockedOn False
    WarnLock wtWarnNone
LogicReferenceObjectData 72d225b741af4d4994c6547e030299e6
    $::ReferenceObjectData
        $::GameObjectData
            $::GameDataContainer
                $::DataContainer
            IsEventConnectionTarget 3
            IsPropertyConnectionTarget 2
            IndexInBlueprint 4
        BlueprintTransform::LinearTransform
            right::Vec3
                x 1.0
                y 0.0
                z 0.0
            up::Vec3
                x 0.0
                y 1.0
                z 0.0
            forward::Vec3
                x 0.0
                y 0.0
                z 1.0
            trans::Vec3
                x 0.0
                y 0.0
                z 0.0
        Blueprint vehicles/common/defaultmissilehud/60d8466487e6d14fc0f628f0a850fa18
        ObjectVariation *nullGuid*
        StreamRealm StreamRealm_None
        CastSunShadowEnable True
        Excluded False
    SubRealm SubRealm_All
LogicReferenceObjectData 6ff3fa65d162dc408a1d73e94d51b754
    $::ReferenceObjectData
        $::GameObjectData
            $::GameDataContainer
                $::DataContainer
            IsEventConnectionTarget 0
            IsPropertyConnectionTarget 2
            IndexInBlueprint 5
        BlueprintTransform::LinearTransform
            right::Vec3
                x 1.0
                y 0.0
                z 0.0
            up::Vec3
                x 0.0
                y 1.0
                z 0.0
            forward::Vec3
                x 0.0
                y 0.0
                z 1.0
            trans::Vec3
                x 0.0
                y 0.0
                z 0.0
        Blueprint vehicles/common/logicalprefabs/bot1pfx/26e369827ee648408f4817e0cc6958ea
        ObjectVariation *nullGuid*
        StreamRealm StreamRealm_None
        CastSunShadowEnable True
        Excluded False
    SubRealm SubRealm_All
LogicReferenceObjectData 1c87c42c1c53cd45aeb83ed6452acce7
    $::ReferenceObjectData
        $::GameObjectData
            $::GameDataContainer
                $::DataContainer
            IsEventConnectionTarget 0
            IsPropertyConnectionTarget 3
            IndexInBlueprint 21
        BlueprintTransform::LinearTransform
            right::Vec3
                x 1.0
                y 0.0
                z 0.0
            up::Vec3
                x 0.0
                y 1.0
                z 0.0
            forward::Vec3
                x 0.0
                y 0.0
                z 1.0
            trans::Vec3
                x 0.0
                y 0.0
                z 0.0
        Blueprint vehicles/common/logicalprefabs/teamradiovehiclevo/06f2f1306ab560409c8e14a0d02cfdfa
        ObjectVariation *nullGuid*
        StreamRealm StreamRealm_None
        CastSunShadowEnable True
        Excluded False
    SubRealm SubRealm_All
MessageEntityData 4522a0c27bb5cf4aac4b4f63478791b9
    $::EntityData
        $::GameObjectData
            $::GameDataContainer
                $::DataContainer
            IsEventConnectionTarget 0
            IsPropertyConnectionTarget 3
            IndexInBlueprint 12
    MessageSid ID_M_LAYOUT_THROTTLE_UP
    AdditionalMessages::array
        member::MessageLineData
            MessageSid ID_M_LAYOUT_THROTTLE_DOWN
            EntryInputAction EIABrake
    MessageType UIMessageEntityType_Tooltip
    DisplayTime 3.0
    EntryInputAction EIAThrottle
    Enabled True
MessageEntityData 38d78ff0db8e884594ea2d8ce816b139
    $::EntityData
        $::GameObjectData