AIEntryData c315b7f27d91f0a7e5ad45dd15248371
    $::GameAIEntryData
        $::Asset
            $::DataContainer
            Name *nullString*
    EquipmentType *nullGuid*
    Armament *nullGuid*
    Mobility *nullGuid*
    StrengthType Infantry
    ReuseTime 0.0
    Forbidden True
    HasExposedSoldier False
    InterludeOnly False
    InvalidForAI False
AeroDynamicPhysicsData 95213dd7eaf7304bb1390ae442afd73f
    $::DataContainer
    BodyDrag::Vec3
        x 0.035000000149
        y 0.0850000008941
        z 0.019999999553
    BodyDragOffsetYZ::Vec3
        x 0.0
        y 0.0
        z 0.0
    BodyDragOffsetXZ::Vec3
        x 0.0
        y 0.0
        z 0.0
    BodyDragOffsetXY::Vec3
        x 0.0
        y 0.0
        z 0.0
AlternateCameraViewData 62220509a6e14e45ae1443595feede56
    $::DataContainer
    FieldOfView 50.0
    AllowFieldOfViewScaling False
    FovTransitionTime 0.10000000149
    WorldSpaceLockEfficiency 0.0
    Mesh *nullGuid*
    MaskMeshBlueprint *nullGuid*
    LockMeshToRenderView False
    MeshOffset::Vec3
        x 0.0
        y 0.00999999977648
        z 0.519999980927
    Hud::HudData
        CrosshairScaleMin 0.0
        CrosshairScaleMax 5.0
        CrosshairOpacityMin 1.0
        CrosshairOpacityMax 0.10000000149
        CrosshairOpacityModifier 1.0
        CrosshairTypeId wz11
        WeaponClass *nullString*
        ShowMinimap True
        HideAmmo False
        LowAmmoWarning 0.300000011921
        ReloadPrompt 0.300000011921
        InfiniteAmmo False
        HideCrosshairWhenAimOnFriend True
        UseRenderTarget False
        RenderTargetIndex 0
        HudPropertyList *nullGuid*
        UseRangeMeter False
        UseAimWarning True
        UsePredictedSight True
        UseWeaponOrientations False
        UseVelocityVectorMarker False
        UseLockingController True
        UseThrust True
        UseGForce True
        UseSkidSlip False
        UseClimbRate True
        SeaLevelAltFreq 15.0
        CameraShakeModifier 1.0
    FadeToBlack False
    FadeInDuration 0.0
    FadeOutDuration 0.0
    BlackDuration 0.0
    InputSuppression::InputSuppressionData
        SuppressVehicleInput::array
            member::ActionSuppressor
                ActionToSuppress EIAPitch
                SuppressingValue 0.0
            member::ActionSuppressor
                ActionToSuppress EIARoll
                SuppressingValue 0.0
    ToggleViewChange False
    UseProfileOptionForToggleViewChange False
    FLIREnabled False
    ScreenExposureAreaScale 1.0
BoolEntityData 94f533939efa4847a07213992cd49ff5
    $::EntityData
        $::GameObjectData
            $::GameDataContainer
                $::DataContainer
            IsEventConnectionTarget 3
            IsPropertyConnectionTarget 3
            IndexInBlueprint 2
    Realm Realm_Server
    DefaultValue False
CameraComponentData fdfd441ba90ce942b7bc15a8aecd9a31
    $::ComponentData
        $::GameObjectData
            $::GameDataContainer
                $::DataContainer
            IsEventConnectionTarget 3
            IsPropertyConnectionTarget 3
            IndexInBlueprint -1
        Transform::LinearTransform
            right::Vec3
                x 1.0
                y 0.0
                z 0.0
            up::Vec3
                x 0.0
                y 1.0
                z 0.0
            forward::Vec3
                x 0.0
                y 0.0
                z 1.0
            trans::Vec3
                x 0.494604229927
                y 1.05148053169
                z 2.15759301186
        Components *nullArray*
        Excluded False
    Camera b889419db2660d4eb2f6271d8aef108b
    FieldOfView 45.0
    ForceFieldOfView -1.0
    EnableCameraMesh True
    AlternateView 62220509a6e14e45ae1443595feede56
    RegularView::RegularCameraViewData
        FLIREnabled False
        InputSuppression::InputSuppressionData
            SuppressVehicleInput *nullArray*
        FieldOfView 50.0
        AllowFieldOfViewScaling False
        Mesh vehicles/common/jethudtest_ru_mesh/8a1f2174a0b9d956f77bc7fbd1dcf1f4
        MaskMeshBlueprint *nullGuid*
        LockMeshToRenderView False
        MeshOffset::Vec3
            x 0.0
            y 0.00999999977648
            z 0.519999980927
        ScreenExposureAreaScale 1.0
    AlternateViewEnabled True
    FreezeHeight 0.0
    IsFirstPerson True
    SoldierAnimatedCamera::SoldierAnimatedCameraData
        EnableFeature False
        CameraTransitionTime 0.5
    ReceiveImpulsesAsThirdPerson False
    UseCameraTransition False
    CameraTransitionPos::Vec3
        x 0.0
        y 0.0
        z 0.0
    CameraTransitionTime 2.0
    MeshParentComponentNumber 0
    StanceData::StanceCameraData
        ValidStances::array
            member 0
        DefaultCameraForStances::array
            member 0
    CameraSoundData *nullGuid*
    IgnoreOwnerOrientation False
ChassisComponentData 56be6f86d4da3e40bcae0d256c20cb51
    $::PartComponentData
        $::ComponentData
            $::GameObjectData
                $::GameDataContainer
                    $::DataContainer
                IsEventConnectionTarget 3
                IsPropertyConnectionTarget 3
                IndexInBlueprint 1
            Transform::LinearTransform
                right::Vec3
                    x 1.0
                    y 0.0
                    z 0.0
                up::Vec3
                    x 0.0
                    y 1.0
                    z 0.0
                forward::Vec3
                    x 0.0
                    y 0.0
                    z 1.0
                trans::Vec3
                    x 0.0
                    y 0.0
                    z 0.0
            Components::array
                member 5b3abae5c51eb24387c68afdef48dbed
                member af117788db18084ca7c91b789f640688
                member 393ccbee3ee2934982ba27df9e41fb5a
                member df6249657db43444a03d6e590b5c5586
                member 736f30f25b950a418c3d74ba1df0975d
                member 288267bee3dc884b8f73c6701c7d6663
                member 29553db4921f614aa9c22f3a61ded7ae
                member 1e0232c03f5e9e40ac4308d28b96885e
                member aa1e38713bcae4468a318da6b5a89bdc
                member c50c4c2c69120142a08cac67ac7482aa
                member 8a7eae2e0bfffd46a053de347d962c50
                member c9990178360ed8418053953872e1cba3
                member f638e3202959334ebed218f3db9c7a95
                member 46ea8723fe60d685271feac6ada7962a
                member e4447feb6ce0a61e4517ab5fcdcbae04
                member 3861686abc30e7249927ac1c8e9c6997
                member 0792859809ed52d2e06df73f88a6fa03
                member 750de7a8b6698acdcf0a681136f95dc1
                member 08983128786acd99113a31bd79d381f4
                member 1221e5aa408a226dd0d1910b05856e07
                member a911afd12d38ea74951134469f39e6db
                member 774d469f66601bb6deb28d29793761eb
                member c35cd705a03c539429652019e9d4665b
                member baf5cf8c3a439fc83bb67fc902a37fa8
                member 96bf0b1d5e84fed1568eff4313fa610f
                member 05c743d74d2a921f96cafabd0808b6e6
                member bad59100731663287290c844cb9c7781
                member 811ca1d175ae537089f98f3a19c746cb
                member d410f5a996fe17139337a03053518b06
                member 65bb61a1799fccaa8fd4dde6e67252cd
            Excluded False
        HealthStates::array
            member 6c4f7f52ba9b1e4cb3ce732b3253b390
            member 615bf0094c963442b62e472b7398e8bd
        PartLinks *nullArray*
        IsSupported False
        IsFragile False
        IsNetworkable True
        IsWindow False
        AnimatePhysics False
    VehicleConfig 0a1dbdee093af44daee2829074cc06aa
    GearboxConfig 485a280b82803e418e47751c8ce6f94d
    AlwaysFullThrottle False
    WaterEffects *nullArray*
    WaterStreakEffects *nullArray*
    TriggerGroundEffectImpulse 0.0
    LandingGearLogic *nullGuid*
    ForceLandingGearsRetract False
    AllowNegativeThrottle True
Curve2D 38186b837e388c4685c80c20f62d9b0e
    $::DataContainer
    Curve::array
        member::Vec2
            x -25.0
            y -1.0
        member::Vec2
            x -20.0
            y -3.0
        member::Vec2
            x -10.0
            y -2.0
        member::Vec2
            x -0.75
            y 0.0
        member::Vec2
            x 0.75
            y 0.0
        member::Vec2
            x 10.0
            y 2.0
        member::Vec2
            x 20.0
            y 3.0
        member::Vec2
            x 25.0
            y 1.0
Curve2D e0482360f19596429713550b63321b21
    $::DataContainer
    Curve::array
        member::Vec2
            x -12.5
            y 2.25
        member::Vec2
            x -7.5
            y 1.25
        member::Vec2
            x -5.0
            y 0.10000000149
        member::Vec2
            x -2.0
            y 0.0500000007451
        member::Vec2
            x 0.0
            y 0.0299999993294
        member::Vec2
            x 2.0
            y 0.0500000007451
        member::Vec2
            x 5.0
            y 0.10000000149
        member::Vec2
            x 7.5
            y 1.25
        member::Vec2
            x 12.5
            y 2.25
Curve2D adc4ccb7c154db4fa6ee0ca3da117cb7
    $::DataContainer
    Curve *nullArray*
Curve2D 632020ca41bb7f4898da0e8f863604ff
    $::DataContainer
    Curve::array
        member::Vec2
            x -35.0
            y 1.0
        member::Vec2
            x 0.0
            y 0.0
        member::Vec2
            x 35.0
            y 1.0
Curve2D 10306338feb5a84ba7aef03deb91b0bc
    $::DataContainer
    Curve *nullArray*
Curve2D 567d633a363f2e48aaf29c035cb7db16
    $::DataContainer
    Curve::array
        member::Vec2
            x -35.0
            y 1.0
        member::Vec2
            x 0.0
            y 0.0
        member::Vec2
            x 35.0
            y 1.0
EffectComponentData 5f7b09d1138cfe4b822538cce2c715f1
    $::ComponentData
        $::GameObjectData
            $::GameDataContainer
                $::DataContainer
            IsEventConnectionTarget 3
            IsPropertyConnectionTarget 3
            IndexInBlueprint -1
        Transform::LinearTransform
            right::Vec3
                x 1.0
                y 0.0
                z 0.0
            up::Vec3
                x 0.0
                y 1.0
                z 0.0
            forward::Vec3
                x 0.0
                y 0.0
                z 1.0
            trans::Vec3
                x 0.0
                y -0.13367497921
                z -0.96946310997
        Components *nullArray*
        Excluded False
    Effect fx/vehicles/damagestates/healthcritical/heli/fx_healthcritical_heli/42a106765c869244a437287510e4fb42
    AutoStart False
    SnapToWaterSurface False
    EmitterParameter1 0.0
    EmitterParameter2 0.0
    EmitterParameter3 0.0
EffectComponentData 763a9d110eb63847b1a4e262b7b9ddee
    $::ComponentData
        $::GameObjectData
            $::GameDataContainer
                $::DataContainer
            IsEventConnectionTarget 3
            IsPropertyConnectionTarget 3
            IndexInBlueprint -1
        Transform::LinearTransform
            right::Vec3
                x 1.0
                y 0.0
                z 0.0
            up::Vec3
                x 0.0
                y 1.0
                z 0.0
            forward::Vec3
                x 0.0
                y 0.0
                z 1.0
            trans::Vec3
                x 0.0
                y -0.13367497921
                z -0.96946310997
        Components *nullArray*
        Excluded False
    Effect fx/vehicles/damagestates/healthdisabled/heli/fx_healthdisabled_heli_02/80ce6631148b3045b27e4be8ec128469
    AutoStart False
    SnapToWaterSurface False
    EmitterParameter1 0.0
    EmitterParameter2 0.0
    EmitterParameter3 0.0
EffectComponentData e7058b72a231954aab26344cf869d341
    $::ComponentData
        $::GameObjectData
            $::GameDataContainer
                $::DataContainer
            IsEventConnectionTarget 3
            IsPropertyConnectionTarget 3
            IndexInBlueprint -1
        Transform::LinearTransform
            right::Vec3
                x 1.0
                y 0.0
                z 0.0
            up::Vec3
                x 0.0
                y 1.0
                z 0.0
            forward::Vec3
                x 0.0
                y 0.0
                z 1.0
            trans::Vec3
                x 0.0
                y -0.13367497921
                z -0.96946310997
        Components *nullArray*
        Excluded False
    Effect fx/vehicles/damagestates/healthhigh/heli/fx_healthhigh_heli/d6411dff3438584aaee4a61132ad1081
    AutoStart False
    SnapToWaterSurface False
    EmitterParameter1 0.0
    EmitterParameter2 0.0
    EmitterParameter3 0.0
EffectComponentData bf0539d01ad8d34695670b788878ae5e
    $::ComponentData
        $::GameObjectData
            $::GameDataContainer
                $::DataContainer
            IsEventConnectionTarget 0
            IsPropertyConnectionTarget 3
            IndexInBlueprint -1
        Transform::LinearTransform
            right::Vec3
                x 1.0
                y 0.0
                z 0.0
            up::Vec3
                x 0.0
                y 1.0
                z 0.0
            forward::Vec3
                x 0.0
                y 0.0
                z 1.0
            trans::Vec3
                x 0.0
                y 0.0
                z 0.0
        Components *nullArray*
        Excluded False
    Effect fx/ambient/levelspecific/sp_paris/fx_spparis_helicopter_dmgsmoke/b4cbfbabbdbdcb4ba9111ef85861a8bf
    AutoStart False
    SnapToWaterSurface False
    EmitterParameter1 0.0
    EmitterParameter2 0.0
    EmitterParameter3 0.0
EngineComponentData af117788db18084ca7c91b789f640688
    $::ComponentData
        $::GameObjectData
            $::GameDataContainer
                $::DataContainer
            IsEventConnectionTarget 3
            IsPropertyConnectionTarget 3
            IndexInBlueprint -1
        Transform::LinearTransform
            right::Vec3
                x 1.0
                y 0.0
                z 0.0
            up::Vec3
                x 0.0
                y 1.0
                z 0.0
            forward::Vec3
                x 0.0
                y 0.0
                z 1.0
            trans::Vec3
                x 0.0
                y 0.75
                z 0.0
        Components::array
            member 9a3e39e96da59343ba327b7cfb6ff3d6
        Excluded False
    Config 4b1cbc6f704bd14c8622894c4a059961
    SoundEffect *nullGuid*
    SurfaceSoundEffect *nullGuid*
    UseFirstPersonSounds False
    OutputIsEngineInWater False
EngineComponentData 393ccbee3ee2934982ba27df9e41fb5a
    $::ComponentData
        $::GameObjectData
            $::GameDataContainer
                $::DataContainer
            IsEventConnectionTarget 3
            IsPropertyConnectionTarget 3
            IndexInBlueprint -1
        Transform::LinearTransform
            right::Vec3
                x 1.0
                y 0.0
                z 0.0
            up::Vec3
                x 0.0
                y 1.0
                z 0.0
            forward::Vec3
                x 0.0
                y 0.0
                z 1.0
            trans::Vec3
                x 0.282121002674
                y -0.591982960701
                z -5.31123399734
        Components::array
            member 376e8fbf6f773e43a257558dc9f09f88
        Excluded False
    Config 115d56b23090d147a6ab9f8a0098d1ec
    SoundEffect *nullGuid*
    SurfaceSoundEffect *nullGuid*
    UseFirstPersonSounds False
    OutputIsEngineInWater False
EntityVoiceOverInfo 1dd9fcce54714d42ab025268f0740285
    $::DataContainer
    VoiceOverType sound/vo/vo_system/d96f3de2d0ae7e4398ab435761060519
    Labels::array
        member sound/vo/vo_system/16f4c4d56042544c8f47aa07606fbb29
GearboxConfigData 485a280b82803e418e47751c8ce6f94d
    $::DataContainer
    ForwardGearRatios::array
        member 0.0
    ForwardGearSpeeds::array
        member 0.0
    ReverseGearRatios::array
        member 0.0
    ReverseGearSpeeds::array
        member 0.0
    GearboxType 0
    GearboxMode 0
    GearChangeTime 0.0625
    GearDownSpeedFactor 0.800000011921
    OppositeDirGearChangeMaxSpeed 50.0
    OppositeDirGearChangeTime 0.125
    ClutchSpeedFactor 10.0
    TransmissionEfficiency 1.0
    UseAutoClutch True
    UseClassicGearBoxAutoClutch False
    UseNeutralGear True
    LimitBackwardThrottle False
    BackwardThrottleLimit 50.0
HavokAsset 29910b0dd6203a56b079112e72d93612
    $::Asset
        $::DataContainer
        Name Vehicles/Wz11_SP_Paris/Wz11_SP_Paris_Physics_0_Win32
    Scale 1.0
    ExternalAssets *nullArray*
HealthStateData 6c4f7f52ba9b1e4cb3ce732b3253b390
    $::DataContainer
    Objects *nullArray*
    LoosePartPhysics *nullArray*
    SpawnedBangerBlueprint *nullGuid*
    CopyDamageToBanger True
    SpawnedBangerImpulseParams *nullGuid*
    PhysicsEnabled True
    Health 100000.0
    PartIndex 18
    CanSupportOtherParts True
HealthStateData 615bf0094c963442b62e472b7398e8bd
    $::DataContainer
    Objects::array
        member 3adbfd3ac9c8aa4e8cea647b7ceba5d2
        member ce5e45e91cbcbe418a2be141cb82ab4f
    LoosePartPhysics *nullArray*
    SpawnedBangerBlueprint *nullGuid*
    CopyDamageToBanger True
    SpawnedBangerImpulseParams *nullGuid*
    PhysicsEnabled True
    Health 0.0
    PartIndex 4294967295
    CanSupportOtherParts False
HealthStateData 4e64f2cbb6c028794c6a99cf2e19a0f6
    $::DataContainer
    Objects *nullArray*
    LoosePartPhysics *nullArray*
    SpawnedBangerBlueprint *nullGuid*
    CopyDamageToBanger True
    SpawnedBangerImpulseParams *nullGuid*
    PhysicsEnabled True
    Health 100.0
    PartIndex 0
    CanSupportOtherParts True
HealthStateData b595f6d7f68fe3fd037150bd7493af38
    $::DataContainer
    Objects *nullArray*
    LoosePartPhysics *nullArray*
    SpawnedBangerBlueprint *nullGuid*
    CopyDamageToBanger True
    SpawnedBangerImpulseParams *nullGuid*
    PhysicsEnabled True
    Health 100.0
    PartIndex 1
    CanSupportOtherParts True
HealthStateData 62b9cfda9a9e420bb2042eecbd709188
    $::DataContainer
    Objects *nullArray*
    LoosePartPhysics *nullArray*
    SpawnedBangerBlueprint *nullGuid*
    CopyDamageToBanger True
    SpawnedBangerImpulseParams *nullGuid*
    PhysicsEnabled True
    Health 100.0
    PartIndex 2
    CanSupportOtherParts True
HealthStateData 0fc86eea5fc1c711f502ac834f7c2ba4
    $::DataContainer
    Objects *nullArray*
    LoosePartPhysics *nullArray*
    SpawnedBangerBlueprint *nullGuid*
    CopyDamageToBanger True
    SpawnedBangerImpulseParams *nullGuid*
    PhysicsEnabled True
    Health 100.0
    PartIndex 3
    CanSupportOtherParts True
HealthStateData 672e4f350a0fcb91afa14162223f005f
    $::DataContainer
    Objects *nullArray*
    LoosePartPhysics *nullArray*
    SpawnedBangerBlueprint *nullGuid*
    CopyDamageToBanger True
    SpawnedBangerImpulseParams *nullGuid*
    PhysicsEnabled True
    Health 100.0
    PartIndex 4
    CanSupportOtherParts True
HealthStateData d9489cff7ac58cb46863aa6e9ae32c8c
    $::DataContainer
    Objects *nullArray*
    LoosePartPhysics *nullArray*
    SpawnedBangerBlueprint *nullGuid*
    CopyDamageToBanger True
    SpawnedBangerImpulseParams *nullGuid*
    PhysicsEnabled True
    Health 100.0
    PartIndex 5
    CanSupportOtherParts True
HealthStateData 09e365c939b12994ea37a27d7939c3d0
    $::DataContainer
    Objects *nullArray*
    LoosePartPhysics *nullArray*
    SpawnedBangerBlueprint *nullGuid*
    CopyDamageToBanger True
    SpawnedBangerImpulseParams *nullGuid*
    PhysicsEnabled True
    Health 100.0
    PartIndex 6
    CanSupportOtherParts True
HealthStateData 899beac3c60e89c9cd9d94a558a64578
    $::DataContainer
    Objects *nullArray*
    LoosePartPhysics *nullArray*
    SpawnedBangerBlueprint *nullGuid*
    CopyDamageToBanger True
    SpawnedBangerImpulseParams *nullGuid*
    PhysicsEnabled True
    Health 100.0
    PartIndex 7
    CanSupportOtherParts True
HealthStateData c67b55ab34a56c07714a9136aa14814f
    $::DataContainer
    Objects *nullArray*
    LoosePartPhysics *nullArray*
    SpawnedBangerBlueprint *nullGuid*
    CopyDamageToBanger True
    SpawnedBangerImpulseParams *nullGuid*
    PhysicsEnabled True
    Health 100.0
    PartIndex 8
    CanSupportOtherParts True
HealthStateData 94e2d19fe84a999a236d9bf0fd14a36c
    $::DataContainer
    Objects *nullArray*
    LoosePartPhysics *nullArray*
    SpawnedBangerBlueprint *nullGuid*
    CopyDamageToBanger True
    SpawnedBangerImpulseParams *nullGuid*
    PhysicsEnabled True
    Health 100.0
    PartIndex 9
    CanSupportOtherParts True
HealthStateData 443cfab49c68e1a086b3c1abcb886b65
    $::DataContainer
    Objects *nullArray*
    LoosePartPhysics *nullArray*
    SpawnedBangerBlueprint *nullGuid*
    CopyDamageToBanger True
    SpawnedBangerImpulseParams *nullGuid*
    PhysicsEnabled True
    Health 100.0
    PartIndex 10
    CanSupportOtherParts True
HealthStateData f06ec7a319e7785df1dc5fd97aa15e4c
    $::DataContainer
    Objects *nullArray*
    LoosePartPhysics *nullArray*
    SpawnedBangerBlueprint *nullGuid*
    CopyDamageToBanger True
    SpawnedBangerImpulseParams *nullGuid*
    PhysicsEnabled True
    Health 100.0
    PartIndex 11
    CanSupportOtherParts True
HealthStateData 16dc59ec2e4a975164af72d2ce80f662
    $::DataContainer
    Objects *nullArray*
    LoosePartPhysics *nullArray*
    SpawnedBangerBlueprint *nullGuid*
    CopyDamageToBanger True
    SpawnedBangerImpulseParams *nullGuid*
    PhysicsEnabled True
    Health 100.0
    PartIndex 12
    CanSupportOtherParts True
HealthStateData 90a11ca9d01a9ff63c3b067b62273551
    $::DataContainer
    Objects *nullArray*
    LoosePartPhysics *nullArray*
    SpawnedBangerBlueprint *nullGuid*
    CopyDamageToBanger True
    SpawnedBangerImpulseParams *nullGuid*
    PhysicsEnabled True
    Health 100.0
    PartIndex 13
    CanSupportOtherParts True
HealthStateData b7c7546399be2a620e3b33ddc4d64642
    $::DataContainer
    Objects *nullArray*
    LoosePartPhysics *nullArray*
    SpawnedBangerBlueprint *nullGuid*
    CopyDamageToBanger True
    SpawnedBangerImpulseParams *nullGuid*
    PhysicsEnabled True
    Health 100.0
    PartIndex 14
    CanSupportOtherParts True
HealthStateData 7b41a266bd7352cd7a042017fcb9c700
    $::DataContainer
    Objects *nullArray*
    LoosePartPhysics *nullArray*
    SpawnedBangerBlueprint *nullGuid*
    CopyDamageToBanger True
    SpawnedBangerImpulseParams *nullGuid*
    PhysicsEnabled True
    Health 100.0
    PartIndex 17
    CanSupportOtherParts True
HealthStateData b07bba70e21ffe4fa811a10489713122
    $::DataContainer
    Objects *nullArray*
    LoosePartPhysics *nullArray*
    SpawnedBangerBlueprint *nullGuid*
    CopyDamageToBanger True
    SpawnedBangerImpulseParams *nullGuid*
    PhysicsEnabled True
    Health 100.0
    PartIndex 8
    CanSupportOtherParts True
InterfaceDescriptorData ba284a127a34da4ab24aa40e181819d1
    $::DynamicDataContainer
        $::DataContainer
        Fields *nullArray*
    InputEvents::array
        member::DynamicEvent
            Id 1242230519
    OutputEvents *nullArray*
    InputLinks *nullArray*
    OutputLinks *nullArray*
MotionDampingData c77db1ce71e490429abfb5ebba986878
    $::DataContainer
    LinearModifier::Vec3
        x 1.5
        y 1.5
        z 1.5
    Pitch 0.239999994636
    Yaw 0.0799999982119
    Roll 0.239999994636
    Linear 0.0
PartComponentData df6249657db43444a03d6e590b5c5586
    $::ComponentData
        $::GameObjectData
            $::GameDataContainer
                $::DataContainer
            IsEventConnectionTarget 3
            IsPropertyConnectionTarget 3
            IndexInBlueprint -1
        Transform::LinearTransform
            right::Vec3
                x 1.0
                y 0.0
                z 0.0
            up::Vec3
                x 0.0
                y 1.0
                z 0.0
            forward::Vec3
                x 0.0
                y 0.0
                z 1.0
            trans::Vec3
                x 0.0
                y 0.0
                z 0.0
        Components::array
            member bf0539d01ad8d34695670b788878ae5e
            member 5f7b09d1138cfe4b822538cce2c715f1
            member 763a9d110eb63847b1a4e262b7b9ddee
            member e7058b72a231954aab26344cf869d341
        Excluded False
    HealthStates *nullArray*
    PartLinks *nullArray*
    IsSupported False
    IsFragile False
    IsNetworkable True
    IsWindow False
    AnimatePhysics False
PartComponentData 46ea8723fe60d685271feac6ada7962a
    $::ComponentData
        $::GameObjectData
            $::GameDataContainer
                $::DataContainer
            IsEventConnectionTarget 3
            IsPropertyConnectionTarget 3
            IndexInBlueprint -1
        Transform::LinearTransform
            right::Vec3
                x 1.0
                y 0.0
                z 0.0
            up::Vec3
                x 0.0
                y 1.0
                z 0.0
            forward::Vec3
                x 0.0
                y 0.0
                z 1.0
            trans::Vec3
                x 0.0
                y 0.0
                z 0.0
        Components *nullArray*
        Excluded False
    HealthStates::array
        member 4e64f2cbb6c028794c6a99cf2e19a0f6
    PartLinks *nullArray*
    IsSupported False
    IsFragile False
    IsNetworkable True
    IsWindow False
    AnimatePhysics False
PartComponentData e4447feb6ce0a61e4517ab5fcdcbae04
    $::ComponentData
        $::GameObjectData
            $::GameDataContainer
                $::DataContainer
            IsEventConnectionTarget 3
            IsPropertyConnectionTarget 3
            IndexInBlueprint -1
        Transform::LinearTransform
            right::Vec3
                x 1.0
                y 0.0
                z 0.0
            up::Vec3
                x 0.0
                y 1.0
                z 0.0
            forward::Vec3
                x 0.0
                y 0.0
                z 1.0
            trans::Vec3
                x 0.0
                y 0.0
                z 0.0
        Components *nullArray*
        Excluded False
    HealthStates::array
        member b595f6d7f68fe3fd037150bd7493af38
    PartLinks *nullArray*
    IsSupported False
    IsFragile False
    IsNetworkable True
    IsWindow False
    AnimatePhysics False
PartComponentData 3861686abc30e7249927ac1c8e9c6997
    $::ComponentData
        $::GameObjectData
            $::GameDataContainer
                $::DataContainer
            IsEventConnectionTarget 3
            IsPropertyConnectionTarget 3
            IndexInBlueprint -1
        Transform::LinearTransform
            right::Vec3
                x 1.0
                y 0.0
                z 0.0
            up::Vec3
                x 0.0
                y 1.0
                z 0.0
            forward::Vec3
                x 0.0
                y 0.0
                z 1.0
            trans::Vec3
                x 0.0
                y 0.0
                z 0.0
        Components *nullArray*
        Excluded False
    HealthStates::array
        member 62b9cfda9a9e420bb2042eecbd709188
    PartLinks *nullArray*
    IsSupported False
    IsFragile False
    IsNetworkable True
    IsWindow False
    AnimatePhysics False
PartComponentData 0792859809ed52d2e06df73f88a6fa03
    $::ComponentData
        $::GameObjectData
            $::GameDataContainer
                $::DataContainer
            IsEventConnectionTarget 3
            IsPropertyConnectionTarget 3
            IndexInBlueprint -1
        Transform::LinearTransform
            right::Vec3
                x 1.0
                y 0.0
                z 0.0
            up::Vec3
                x 0.0
                y 1.0
                z 0.0
            forward::Vec3
                x 0.0
                y 0.0
                z 1.0
            trans::Vec3
                x 0.0
                y 0.0
                z 0.0
        Components *nullArray*
        Excluded False
    HealthStates::array
        member 0fc86eea5fc1c711f502ac834f7c2ba4
    PartLinks *nullArray*
    IsSupported False
    IsFragile False
    IsNetworkable True
    IsWindow False
    AnimatePhysics False
PartComponentData 750de7a8b6698acdcf0a681136f95dc1
    $::ComponentData
        $::GameObjectData
            $::GameDataContainer
                $::DataContainer
            IsEventConnectionTarget 3
            IsPropertyConnectionTarget 3
            IndexInBlueprint -1
        Transform::LinearTransform
            right::Vec3
                x 1.0
                y 0.0
                z 0.0
            up::Vec3
                x 0.0
                y 1.0
                z 0.0
            forward::Vec3
                x 0.0
                y 0.0
                z 1.0
            trans::Vec3
                x 0.0