AIEntryData 4ed63c99b21f5e05d62772e60966bedb
    $::GameAIEntryData
        $::Asset
            $::DataContainer
            Name *nullString*
    EquipmentType *nullGuid*
    Armament *nullGuid*
    Mobility *nullGuid*
    StrengthType Infantry
    ReuseTime 0.0
    Forbidden True
    HasExposedSoldier False
    InterludeOnly False
    InvalidForAI False
AeroDynamicPhysicsData 1c539885842a1f29206f914cf6fc5a48
    $::DataContainer
    BodyDrag::Vec3
        x 0.0
        y 0.0
        z 0.00374999991618
    BodyDragOffsetYZ::Vec3
        x 0.0
        y 0.0
        z 0.0
    BodyDragOffsetXZ::Vec3
        x 0.0
        y 0.0
        z 0.0
    BodyDragOffsetXY::Vec3
        x 0.0
        y 0.0
        z 0.0
AirRadarData dfd76be7b7c46f920238f79815f545a9
    $::UIPartData
        $::DataContainer
    RadarRange 1500.0
    RadarSensitivity -1.0
    HeatSensitivity 1.0
    TrackLaserPaintedObjects True
    TrackOnlyUsedVehicles True
    FriendlyIcon UIHudIcon_SnapOvalArrow
    EnemyIcon UIHudIcon_SpottedPosition
    MissileIcon UIHudIcon_NonSelectableSpawnPoint
    LaserPaintedIcon UIHudIcon_SelectedSpawnPoint
    CenterIcon UIHudIcon_Jet
    NorthIcon UIHudIcon_North
    SouthIcon UIHudIcon_North
    EastIcon UIHudIcon_North
    WestIcon UIHudIcon_North
    SubScreen::SubScreenData
        ProjectionAngleX 0.0
        ProjectionAngleY 0.0
        ProjectionAngleZ 0.0
        ScreenPosition::Vec3
            x 0.924000024796
            y 0.0
            z 0.15000000596
        ScreenSize 0.140000000596
        IconSize 20.0
        ScaleIconSizeByDepthStrength 1.0
        UseRenderTarget False
        RenderTargetIndex 0
        RenderTargetApectRatio 1.54999995232
    UseCameraComponentTransform False
AlternateCameraViewData 263d10910267fd5a8900f33fd1451d7c
    $::DataContainer
    FieldOfView 55.0
    AllowFieldOfViewScaling False
    FovTransitionTime 0.10000000149
    WorldSpaceLockEfficiency 0.0
    Mesh vehicles/common/cockpits/jethud_mesh/f4c75be4dfb2b942fd77b25d256d4a8c
    MaskMeshBlueprint *nullGuid*
    LockMeshToRenderView False
    MeshOffset::Vec3
        x 0.0
        y 0.0
        z 1.0
    Hud::HudData
        CrosshairScaleMin 0.0
        CrosshairScaleMax 5.0
        CrosshairOpacityMin 1.0
        CrosshairOpacityMax 0.10000000149
        CrosshairOpacityModifier 1.0
        CrosshairTypeId *nullString*
        WeaponClass *nullString*
        ShowMinimap True
        HideAmmo False
        LowAmmoWarning 0.300000011921
        ReloadPrompt 0.300000011921
        InfiniteAmmo False
        HideCrosshairWhenAimOnFriend True
        UseRenderTarget True
        RenderTargetIndex 0
        HudPropertyList eedbf8d0f8cbc7399008bcbc502cc6ec
        UseRangeMeter True
        UseAimWarning True
        UsePredictedSight True
        UseWeaponOrientations True
        UseVelocityVectorMarker True
        UseLockingController True
        UseThrust True
        UseGForce True
        UseSkidSlip False
        UseClimbRate True
        SeaLevelAltFreq 15.0
        CameraShakeModifier 1.0
    FadeToBlack False
    FadeInDuration 0.10000000149
    FadeOutDuration 0.10000000149
    BlackDuration 0.10000000149
    InputSuppression::InputSuppressionData
        SuppressVehicleInput::array
            member::ActionSuppressor
                ActionToSuppress EIAPitch
                SuppressingValue 0.0
            member::ActionSuppressor
                ActionToSuppress EIARoll
                SuppressingValue 0.0
    ToggleViewChange False
    UseProfileOptionForToggleViewChange False
    FLIREnabled False
    ScreenExposureAreaScale 1.0
AlternateCameraViewData 966f38c6e50b297dcfcc87b19e7205cb
    $::DataContainer
    FieldOfView 8.0
    AllowFieldOfViewScaling False
    FovTransitionTime 0.0
    WorldSpaceLockEfficiency 0.0
    Mesh vehicles/common/cockpits/jethud_mesh/f4c75be4dfb2b942fd77b25d256d4a8c
    MaskMeshBlueprint *nullGuid*
    LockMeshToRenderView False
    MeshOffset::Vec3
        x 0.0
        y 0.0
        z 3.38000011444
    Hud::HudData
        CrosshairScaleMin 0.0
        CrosshairScaleMax 5.0
        CrosshairOpacityMin 1.0
        CrosshairOpacityMax 0.10000000149
        CrosshairOpacityModifier 1.0
        CrosshairTypeId *nullString*
        WeaponClass *nullString*
        ShowMinimap True
        HideAmmo False
        LowAmmoWarning 0.300000011921
        ReloadPrompt 0.300000011921
        InfiniteAmmo False
        HideCrosshairWhenAimOnFriend True
        UseRenderTarget False
        RenderTargetIndex 0
        HudPropertyList *nullGuid*
        UseRangeMeter True
        UseAimWarning True
        UsePredictedSight True
        UseWeaponOrientations True
        UseVelocityVectorMarker True
        UseLockingController True
        UseThrust True
        UseGForce True
        UseSkidSlip True
        UseClimbRate True
        SeaLevelAltFreq 15.0
        CameraShakeModifier 1.0
    FadeToBlack True
    FadeInDuration 0.0
    FadeOutDuration 0.0
    BlackDuration 0.0
    InputSuppression::InputSuppressionData
        SuppressVehicleInput::array
            member::ActionSuppressor
                ActionToSuppress EIARoll
                SuppressingValue 0.125
            member::ActionSuppressor
                ActionToSuppress EIAPitch
                SuppressingValue 0.125
    ToggleViewChange True
    UseProfileOptionForToggleViewChange False
    FLIREnabled False
    ScreenExposureAreaScale 1.0
BangerSpawnImpulseParams 5ba83506c4687beda4d2abd77e4a35aa
    $::DataContainer
    MinHorizontalAngle -90.0
    MaxHorizontalAngle 90.0
    MinVerticalAngle 45.0
    MaxVerticalAngle 85.0
    MinStrength 15000.0
    MaxStrength 15000.0
    WaterStrengthModifier 0.00700000021607
    LinearDamping 0.0
    AngularDamping 0.0500000007451
BangerSpawnImpulseParams 02e12b4b973ebff2b355ddf9c7d3cc82
    $::DataContainer
    MinHorizontalAngle -90.0
    MaxHorizontalAngle 90.0
    MinVerticalAngle 45.0
    MaxVerticalAngle 85.0
    MinStrength 15000.0
    MaxStrength 15000.0
    WaterStrengthModifier 0.00700000021607
    LinearDamping 0.0
    AngularDamping 0.0500000007451
BangerSpawnImpulseParams d4367c6d8002e4306e15707759652d5c
    $::DataContainer
    MinHorizontalAngle -90.0
    MaxHorizontalAngle 90.0
    MinVerticalAngle 45.0
    MaxVerticalAngle 85.0
    MinStrength 15000.0
    MaxStrength 15000.0
    WaterStrengthModifier 0.00700000021607
    LinearDamping 0.0
    AngularDamping 0.0500000007451
BangerSpawnImpulseParams 3592fcd01b9619f3ec2769991ae41f65
    $::DataContainer
    MinHorizontalAngle -90.0
    MaxHorizontalAngle 90.0
    MinVerticalAngle 45.0
    MaxVerticalAngle 85.0
    MinStrength 15000.0
    MaxStrength 15000.0
    WaterStrengthModifier 0.00700000021607
    LinearDamping 0.0
    AngularDamping 0.0500000007451
CameraComponentData 465ea2beaa43071ad66e76f08ae9d20a
    $::ComponentData
        $::GameObjectData
            $::GameDataContainer
                $::DataContainer
            IsEventConnectionTarget 3
            IsPropertyConnectionTarget 3
            IndexInBlueprint -1
        Transform::LinearTransform
            right::Vec3
                x 1.0
                y 0.0
                z 0.0
            up::Vec3
                x 0.0
                y 1.0
                z 0.0
            forward::Vec3
                x 0.0
                y 0.0
                z 1.0
            trans::Vec3
                x 0.0
                y 2.45705833457e-09
                z -0.0160558521748
        Components *nullArray*
        Excluded False
    Camera cf2a7623e4c739cab995f6640c546c3d
    FieldOfView 45.0
    ForceFieldOfView -1.0
    EnableCameraMesh True
    AlternateView 263d10910267fd5a8900f33fd1451d7c
    RegularView::RegularCameraViewData
        FLIREnabled False
        InputSuppression::InputSuppressionData
            SuppressVehicleInput *nullArray*
        FieldOfView 55.0
        AllowFieldOfViewScaling False
        Mesh vehicles/common/cockpits/jethud_mesh/f4c75be4dfb2b942fd77b25d256d4a8c
        MaskMeshBlueprint *nullGuid*
        LockMeshToRenderView False
        MeshOffset::Vec3
            x 0.0
            y 0.0
            z 1.0
        ScreenExposureAreaScale 1.0
    AlternateViewEnabled True
    FreezeHeight 0.0
    IsFirstPerson True
    SoldierAnimatedCamera::SoldierAnimatedCameraData
        EnableFeature False
        CameraTransitionTime 0.5
    ReceiveImpulsesAsThirdPerson False
    UseCameraTransition False
    CameraTransitionPos::Vec3
        x 0.0
        y 0.0
        z 0.0
    CameraTransitionTime 0.10000000149
    MeshParentComponentNumber 0
    StanceData::StanceCameraData
        ValidStances::array
            member 0
            member 1
        DefaultCameraForStances::array
            member 0
            member 1
    CameraSoundData *nullGuid*
    IgnoreOwnerOrientation False
CameraComponentData e06236ffbfbabc5d119d4bd641a08f9d
    $::ComponentData
        $::GameObjectData
            $::GameDataContainer
                $::DataContainer
            IsEventConnectionTarget 3
            IsPropertyConnectionTarget 3
            IndexInBlueprint -1
        Transform::LinearTransform
            right::Vec3
                x 1.0
                y 0.0
                z 0.0
            up::Vec3
                x 0.0
                y 1.0
                z -4.42236469667e-10
            forward::Vec3
                x 0.0
                y 4.42236469667e-10
                z 1.0
            trans::Vec3
                x 0.0
                y 3.5
                z 2.91622304916
        Components *nullArray*
        Excluded False
    Camera 50f86466b049cf9f0c6015baf97ce699
    FieldOfView 45.0
    ForceFieldOfView -1.0
    EnableCameraMesh True
    AlternateView *nullGuid*
    RegularView::RegularCameraViewData
        FLIREnabled False
        InputSuppression::InputSuppressionData
            SuppressVehicleInput *nullArray*
        FieldOfView 65.0
        AllowFieldOfViewScaling False
        Mesh *nullGuid*
        MaskMeshBlueprint *nullGuid*
        LockMeshToRenderView False
        MeshOffset::Vec3
            x 0.0
            y 0.0
            z 0.0
        ScreenExposureAreaScale 1.0
    AlternateViewEnabled True
    FreezeHeight 0.0
    IsFirstPerson False
    SoldierAnimatedCamera::SoldierAnimatedCameraData
        EnableFeature False
        CameraTransitionTime 0.5
    ReceiveImpulsesAsThirdPerson False
    UseCameraTransition False
    CameraTransitionPos::Vec3
        x 0.0
        y 0.0
        z 0.0
    CameraTransitionTime 2.0
    MeshParentComponentNumber 0
    StanceData::StanceCameraData
        ValidStances *nullArray*
        DefaultCameraForStances *nullArray*
    CameraSoundData *nullGuid*
    IgnoreOwnerOrientation False
CameraComponentData f31905c8fc2f77059d5e11e98af09406
    $::ComponentData
        $::GameObjectData
            $::GameDataContainer
                $::DataContainer
            IsEventConnectionTarget 3
            IsPropertyConnectionTarget 3
            IndexInBlueprint -1
        Transform::LinearTransform
            right::Vec3
                x 1.0
                y -2.15405662057e-11
                z 3.15658198365e-12
            up::Vec3
                x -2.15405662057e-11
                y 1.0
                z 1.34384508729e-11
            forward::Vec3
                x -3.69978006565e-11
                y -8.16912579249e-11
                z 0.999999940395
            trans::Vec3
                x 0.0
                y 0.0
                z 0.0
        Components *nullArray*
        Excluded False
    Camera f8e38ca0e122d00e0e0560025ac8a1aa
    FieldOfView 45.0
    ForceFieldOfView -1.0
    EnableCameraMesh True
    AlternateView 966f38c6e50b297dcfcc87b19e7205cb
    RegularView::RegularCameraViewData
        FLIREnabled False
        InputSuppression::InputSuppressionData
            SuppressVehicleInput *nullArray*
        FieldOfView 65.0
        AllowFieldOfViewScaling False
        Mesh vehicles/common/cockpits/jethud_mesh/f4c75be4dfb2b942fd77b25d256d4a8c
        MaskMeshBlueprint *nullGuid*
        LockMeshToRenderView False
        MeshOffset::Vec3
            x 0.0
            y 0.0
            z 0.370000004768
        ScreenExposureAreaScale 1.0
    AlternateViewEnabled True
    FreezeHeight 0.0
    IsFirstPerson True
    SoldierAnimatedCamera::SoldierAnimatedCameraData
        EnableFeature False
        CameraTransitionTime 0.5
    ReceiveImpulsesAsThirdPerson False
    UseCameraTransition False
    CameraTransitionPos::Vec3
        x 0.0
        y 0.0
        z 0.0
    CameraTransitionTime 2.0
    MeshParentComponentNumber 0
    StanceData::StanceCameraData
        ValidStances::array
            member 0
            member 1
        DefaultCameraForStances::array
            member 0
            member 1
    CameraSoundData 1ac8bede708c48394d59c019aa708923
    IgnoreOwnerOrientation False
CameraComponentSoundData 1ac8bede708c48394d59c019aa708923
    $::DataContainer
    SwitchToAlternateViewSound sound/vehicles/stancesandweaponviews/into_citv_us/242520b5381d2f057d1e709579149348
    SwitchToNormalViewSound sound/vehicles/stancesandweaponviews/into_citv_us/242520b5381d2f057d1e709579149348
ChaseCameraData 50f86466b049cf9f0c6015baf97ce699
    $::TargetCameraData
        $::CameraData
            $::GameObjectData
                $::GameDataContainer
                    $::DataContainer
                IsEventConnectionTarget 3
                IsPropertyConnectionTarget 3
                IndexInBlueprint -1
            OcclusionRayOffset::Vec3
                x 0.0
                y 0.0
                z 0.0
            PreFadeTime 0.0
            FadeTime 0.0
            FadeWaitTime 0.0
            StayFadedWhileStreaming False
            ViewFx *nullGuid*
            NearPlane -1.0
            ShadowViewDistanceScale 1.0
            SoundOcclusion 0.0
            SoundListenerRadius 0.5
            ShakeFactor 1.0
        Hud::HudData
            CrosshairScaleMin 0.0
            CrosshairScaleMax 5.0
            CrosshairOpacityMin 1.0
            CrosshairOpacityMax 0.10000000149
            CrosshairOpacityModifier 1.0
            CrosshairTypeId none
            WeaponClass *nullString*
            ShowMinimap False
            HideAmmo False
            LowAmmoWarning 0.300000011921
            ReloadPrompt 0.300000011921
            InfiniteAmmo False
            HideCrosshairWhenAimOnFriend True
            UseRenderTarget False
            RenderTargetIndex 0
            HudPropertyList *nullGuid*
            UseRangeMeter False
            UseAimWarning False
            UsePredictedSight False
            UseWeaponOrientations False
            UseVelocityVectorMarker False
            UseLockingController False
            UseThrust False
            UseGForce False
            UseSkidSlip False
            UseClimbRate False
            SeaLevelAltFreq 0.0
            CameraShakeModifier 1.0
        UIParts *nullArray*
    TargetOffset::Vec3
        x 0.0
        y 1.20000004768
        z 0.0
    TargetRotationOffset 0.0
    KeepTargetPitch True
    ToWantedPositionScale::Vec3
        x 50.0
        y 50.0
        z 50.0
    MaxViewRotationAngleDeg 0.0
    WantedAngleDeg 3.0
    WantedDistance 40.0
    MaxDistance 20.0
    SnapDistance 50.0
    ForceFieldRadius 2.0
    CollisionRadius 0.10000000149
    ForceFieldForceScale 50.0
    AwayFromTargetForceScale 1.0
    VelocityDrag 15.0
    MaxVelocity 750.0
    PillMinimumCollisionRadius 0.5
    PillMaximumCollisionRadius 3.0
    PillMinimumCollisionLength 0.300000011921
    PillExpandSizeSpeedAcceleration 10.0
    LookDistanceScale 0.0
    LookDistanceInFrontOfTarget 150.0
    ShouldRollWithTarget False
    InheritTargetVelocity True
    UpdateRate 200
    HasCollision True
ChildComponentData 2f3c717141822c7171f467f17cb07691
    $::PartComponentData
        $::ComponentData
            $::GameObjectData
                $::GameDataContainer
                    $::DataContainer
                IsEventConnectionTarget 3
                IsPropertyConnectionTarget 3
                IndexInBlueprint -1
            Transform::LinearTransform
                right::Vec3
                    x 1.0
                    y 0.0
                    z 0.0
                up::Vec3
                    x 0.0
                    y 1.0
                    z 0.0
                forward::Vec3
                    x 0.0
                    y 0.0
                    z 1.0
                trans::Vec3
                    x 7.05241966248
                    y -0.36726590991
                    z -1.52478921413
            Components *nullArray*
            Excluded False
        HealthStates::array
            member 651c0dcfd305d0229fead26b5ec2e4eb
        PartLinks *nullArray*
        IsSupported False
        IsFragile False
        IsNetworkable True
        IsWindow False
        AnimatePhysics False
    SoundEffect *nullGuid*
    MovingBody 1babf28ea5ed6b0b196d7ac001aea5ed
    HealthZone::VehicleHealthZoneData
        MaxHealth 0.0
        MaxShieldHealth 0.0
        UseDamageAngleCalculation False
        MinDamageAngle 0.0
        DamageAngleMultiplier 1.0
    SoundEffectStartRpm 0.10000000149
    SoundEffectStopRpm 0.10000000149
    AlignmentSettings *nullGuid*
    WorldSpacePositionLock False
    EnableAlignToCamera False
    AlignTransform::LinearTransform
        right::Vec3
            x 1.0
            y 0.0
            z 0.0
        up::Vec3
            x 0.0
            y 1.0
            z 0.0
        forward::Vec3
            x 0.0
            y 0.0
            z 1.0
        trans::Vec3
            x 0.0
            y 0.0
            z 0.0
ChildComponentData 76f848ac8ca9c042024efe051a4a042b
    $::PartComponentData
        $::ComponentData
            $::GameObjectData
                $::GameDataContainer
                    $::DataContainer
                IsEventConnectionTarget 0
                IsPropertyConnectionTarget 3
                IndexInBlueprint -1
            Transform::LinearTransform
                right::Vec3
                    x 1.0
                    y 0.0
                    z 0.0
                up::Vec3
                    x 0.0
                    y 1.0
                    z 0.0
                forward::Vec3
                    x 0.0
                    y 0.0
                    z 1.0
                trans::Vec3
                    x 7.05241966248
                    y -0.126808151603
                    z -1.54160320759
            Components *nullArray*
            Excluded False
        HealthStates::array
            member cd5221d6fb317a785629346364d57884
        PartLinks *nullArray*
        IsSupported False
        IsFragile False
        IsNetworkable True
        IsWindow False
        AnimatePhysics False
    SoundEffect *nullGuid*
    MovingBody 2f6d3ef47516e6fed6b98b48b51ee66f
    HealthZone::VehicleHealthZoneData
        MaxHealth 0.0
        MaxShieldHealth 0.0
        UseDamageAngleCalculation False
        MinDamageAngle 0.0
        DamageAngleMultiplier 1.0
    SoundEffectStartRpm 0.10000000149
    SoundEffectStopRpm 0.10000000149
    AlignmentSettings *nullGuid*
    WorldSpacePositionLock False
    EnableAlignToCamera False
    AlignTransform::LinearTransform
        right::Vec3
            x 1.0
            y 0.0
            z 0.0
        up::Vec3
            x 0.0
            y 1.0
            z 0.0
        forward::Vec3
            x 0.0
            y 0.0
            z 1.0
        trans::Vec3
            x 0.0
            y 0.0
            z 0.0
ChildComponentData 9645483ca670003b2aee149678b878a7
    $::PartComponentData
        $::ComponentData
            $::GameObjectData
                $::GameDataContainer
                    $::DataContainer
                IsEventConnectionTarget 3
                IsPropertyConnectionTarget 3
                IndexInBlueprint -1
            Transform::LinearTransform
                right::Vec3
                    x 1.0
                    y 0.0
                    z 0.0
                up::Vec3
                    x 0.0
                    y 1.0
                    z 0.0
                forward::Vec3
                    x 0.0
                    y 0.0
                    z 1.0
                trans::Vec3
                    x -7.05241966248
                    y -0.36726590991
                    z -1.5247887373
            Components *nullArray*
            Excluded False
        HealthStates::array
            member 57762cf28e9f65b02cdbe6fe8b5fba3d
        PartLinks *nullArray*
        IsSupported False
        IsFragile False
        IsNetworkable True
        IsWindow False
        AnimatePhysics False
    SoundEffect *nullGuid*
    MovingBody 1babf28ea5ed6b0b196d7ac001aea5ed
    HealthZone::VehicleHealthZoneData
        MaxHealth 0.0
        MaxShieldHealth 0.0
        UseDamageAngleCalculation False
        MinDamageAngle 0.0
        DamageAngleMultiplier 1.0
    SoundEffectStartRpm 0.10000000149
    SoundEffectStopRpm 0.10000000149
    AlignmentSettings *nullGuid*
    WorldSpacePositionLock False
    EnableAlignToCamera False
    AlignTransform::LinearTransform
        right::Vec3
            x 1.0
            y 0.0
            z 0.0
        up::Vec3
            x 0.0
            y 1.0
            z 0.0
        forward::Vec3
            x 0.0
            y 0.0
            z 1.0
        trans::Vec3
            x 0.0
            y 0.0
            z 0.0
ChildComponentData 83865e04007de906a3d9aac86f906d25
    $::PartComponentData
        $::ComponentData
            $::GameObjectData
                $::GameDataContainer
                    $::DataContainer
                IsEventConnectionTarget 0
                IsPropertyConnectionTarget 3
                IndexInBlueprint -1
            Transform::LinearTransform
                right::Vec3
                    x 1.0
                    y 0.0
                    z 0.0
                up::Vec3
                    x 0.0
                    y 1.0
                    z 0.0
                forward::Vec3
                    x 0.0
                    y 0.0
                    z 1.0
                trans::Vec3
                    x -7.05241966248
                    y -0.126808151603
                    z -1.54160308838
            Components *nullArray*
            Excluded False
        HealthStates::array
            member 3afcff2cfc39f2a50f0dd650f18b62f4
        PartLinks *nullArray*
        IsSupported False
        IsFragile False
        IsNetworkable True
        IsWindow False
        AnimatePhysics False
    SoundEffect *nullGuid*
    MovingBody 2f6d3ef47516e6fed6b98b48b51ee66f
    HealthZone::VehicleHealthZoneData
        MaxHealth 0.0
        MaxShieldHealth 0.0
        UseDamageAngleCalculation False
        MinDamageAngle 0.0
        DamageAngleMultiplier 1.0
    SoundEffectStartRpm 0.10000000149
    SoundEffectStopRpm 0.10000000149
    AlignmentSettings *nullGuid*
    WorldSpacePositionLock False
    EnableAlignToCamera False
    AlignTransform::LinearTransform
        right::Vec3
            x 1.0
            y 0.0
            z 0.0
        up::Vec3
            x 0.0
            y 1.0
            z 0.0
        forward::Vec3
            x 0.0
            y 0.0
            z 1.0
        trans::Vec3
            x 0.0
            y 0.0
            z 0.0
ChildComponentData cfce388617dd62b54d2a9cf4cf60af43
    $::PartComponentData
        $::ComponentData
            $::GameObjectData
                $::GameDataContainer
                    $::DataContainer
                IsEventConnectionTarget 3
                IsPropertyConnectionTarget 3
                IndexInBlueprint -1
            Transform::LinearTransform
                right::Vec3
                    x 1.0
                    y 0.0
                    z 0.0
                up::Vec3
                    x 0.0
                    y 1.0
                    z 0.0
                forward::Vec3
                    x 0.0
                    y 0.0
                    z 1.0
                trans::Vec3
                    x -0.000257737381617
                    y -0.883981704712
                    z 4.12145233154
            Components::array
                member ce6abf8dcc408afe53f1d2638f6831c4
            Excluded False
        HealthStates *nullArray*
        PartLinks *nullArray*
        IsSupported False
        IsFragile False
        IsNetworkable True
        IsWindow False
        AnimatePhysics False
    SoundEffect *nullGuid*
    MovingBody fdc2a383012f6b585fde47be9b58e83e
    HealthZone::VehicleHealthZoneData
        MaxHealth 0.0
        MaxShieldHealth 0.0
        UseDamageAngleCalculation False
        MinDamageAngle 0.0
        DamageAngleMultiplier 1.0
    SoundEffectStartRpm 0.10000000149
    SoundEffectStopRpm 0.10000000149
    AlignmentSettings *nullGuid*
    WorldSpacePositionLock False
    EnableAlignToCamera False
    AlignTransform::LinearTransform
        right::Vec3
            x 1.0
            y 0.0
            z 0.0
        up::Vec3
            x 0.0
            y 1.0
            z 0.0
        forward::Vec3
            x 0.0
            y 0.0
            z 1.0
        trans::Vec3
            x 0.0
            y 0.0
            z 0.0
ChildComponentData ce6abf8dcc408afe53f1d2638f6831c4
    $::PartComponentData
        $::ComponentData
            $::GameObjectData
                $::GameDataContainer
                    $::DataContainer
                IsEventConnectionTarget 3
                IsPropertyConnectionTarget 3
                IndexInBlueprint -1
            Transform::LinearTransform
                right::Vec3
                    x 0.99999576807
                    y -0.00283468910493
                    z -0.000669152708724
                up::Vec3
                    x 0.00283361691982
                    y 0.999994695187
                    z -0.00159791461192
                forward::Vec3
                    x 0.000673678761814
                    y 0.00159601168707
                    z 0.999998509884
                trans::Vec3
                    x 0.0
                    y 0.0
                    z 0.0
            Components::array
                member eb2dbc32356f6ae17038db3ecc2b874a
            Excluded False
        HealthStates *nullArray*
        PartLinks *nullArray*
        IsSupported False
        IsFragile False
        IsNetworkable True
        IsWindow False
        AnimatePhysics False
    SoundEffect *nullGuid*
    MovingBody 600a1d7e76715ef2f71d98e185f084be
    HealthZone::VehicleHealthZoneData
        MaxHealth 0.0
        MaxShieldHealth 0.0
        UseDamageAngleCalculation False
        MinDamageAngle 0.0
        DamageAngleMultiplier 1.0
    SoundEffectStartRpm 0.10000000149
    SoundEffectStopRpm 0.10000000149
    AlignmentSettings *nullGuid*
    WorldSpacePositionLock False
    EnableAlignToCamera False
    AlignTransform::LinearTransform
        right::Vec3
            x 1.0
            y 0.0
            z 0.0
        up::Vec3
            x 0.0
            y 1.0
            z 0.0
        forward::Vec3
            x 0.0
            y 0.0
            z 1.0
        trans::Vec3
            x 0.0
            y 0.0
            z 0.0
ChildRotationBodyData 2f6d3ef47516e6fed6b98b48b51ee66f
    $::RotationBodyData
        $::MovingBodyData
            $::DataContainer
            Mass 100.0
            Inertia 1000.0
        AngularMomentumMultiplier 50.0
        AngularMomentumThreshold 0.0
        AngularMomentumDamping 1.0
        AngularMomentumDampingAcc 1.0
        AngularMomentumDampingDeacc 1.0
        UsePostSatisfyConstraints True
        AngularConstraintMin 0.0
        AngularConstraintMax 80.0
        RotationAxis 0
        ExtendedConstraints *nullGuid*
        UseAngularMomentumThreshold False
        UseAngularMomentumDamping False
        UseAngularConstraint True
    ForceModifier -80000.0
    ResetForceModifier -20000.0
    ResetForceInputThreshold 1.0
    UseLinearInput False
    RotationInput EIABrake
    WorldSpaceLockEfficiency 0.0
ChildRotationBodyData 1babf28ea5ed6b0b196d7ac001aea5ed
    $::RotationBodyData
        $::MovingBodyData
            $::DataContainer
            Mass 100.0
            Inertia 1000.0
        AngularMomentumMultiplier 50.0
        AngularMomentumThreshold 0.0
        AngularMomentumDamping 1.0
        AngularMomentumDampingAcc 1.0
        AngularMomentumDampingDeacc 1.0
        UsePostSatisfyConstraints True
        AngularConstraintMin -80.0
        AngularConstraintMax 0.0
        RotationAxis 0
        ExtendedConstraints *nullGuid*
        UseAngularMomentumThreshold False
        UseAngularMomentumDamping False
        UseAngularConstraint True
    ForceModifier 80000.0
    ResetForceModifier -20000.0
    ResetForceInputThreshold 1.0
    UseLinearInput False
    RotationInput EIABrake
    WorldSpaceLockEfficiency 0.0
ChildRotationBodyData 600a1d7e76715ef2f71d98e185f084be
    $::RotationBodyData
        $::MovingBodyData